03_OpenDSS_Circuits/HollySprings_Circuit_Opendss/Master.dss
! ---------------------------------
!! Converted from CYME 
! DATE=May 22, 2015 at 10:12:36
! CYME_VERSION=5.04
! CYMDIST_REVISION=03
! ---------------------------------
! 
Clear    ! Always start the Master with a Clear command
! 
! Define the Circuit
! 
New Circuit.T4795B23 Bus1=T4795B23_1
~ BasekV= 22.87  pu= 1.03323131817761  angle= 0 
~ Z1=[ 0.062784 ,  2.317248 ] ! Actual ohms
~ Z2=[ 0.058752 ,  2.245824 ]
~ Z0=[ 0 ,  13.642787 ]
Redirect SourceRegulator.dss
! 
! Library Data
! 
Redirect Wiredata.dss
Redirect linespacing.dss
Redirect CNLineCodes.dss
! 
! Circuit Element Data
! 
Redirect UGLines.dss
Redirect LinesByPhase.dss
Redirect Regulators.dss
Redirect Loads.dss
Redirect Capacitors.dss
Redirect SwtControls.dss
Redirect Reclosers.dss
Redirect BreakerSettings.dss
Redirect FuseSettings.dss
! 
! Set the voltage bases
! 
Set voltagebases = [ 22.87 0.480, 0.208, 0.24, 0.12]
CalcVoltageBases
! 
! Define the bus coordinates
! 
Buscoords Buscoords.CSV
! 
! Some command templates (commented out)
! 
