03_OpenDSS_Circuits/HollySprings_Circuit_Opendss/CNLineCodes.DSS
New LineCode.DEFAULT nPhases=3 R1=0.172660 X1=0.099757 R0=0.182193 X0=0.088150 B1=409.200989 B0=0.000000 NormAmps=1.000000 Units=km
New LineCode.DISTRIBUTION_BUS nPhases=3 R1=0.000621 X1=0.000621 R0=0.000621 X0=0.000621 B1=0.000621 B0=0.000000 NormAmps=1000.000000 Units=km
New LineCode.NONE nPhases=3 R1=0.000621 X1=0.000621 R0=0.000621 X0=0.000621 B1=0.000621 B0=0.000000 NormAmps=400.000000 Units=km
New LineCode.PEC_#1_AL_TRXLPE_D_B nPhases=3 R1=0.577493 X1=0.979890 R0=0.198650 X0=0.240426 B1=27.545500 B0=0.000000 NormAmps=162.000000 Units=km
New LineCode.PEC_#1_AL_TRXLPE_I_C nPhases=3 R1=0.577493 X1=0.979890 R0=0.198650 X0=0.240426 B1=27.545500 B0=0.000000 NormAmps=162.000000 Units=km
New LineCode.PEC_#2_AL_TRXLPE_D_B nPhases=3 R1=0.658691 X1=0.125290 R0=1.099810 X0=0.225561 B1=1.295650 B0=0.000000 NormAmps=105.000000 Units=km
New LineCode.PEC_#2_AL_TRXLPE_I_C nPhases=3 R1=0.658691 X1=0.125290 R0=1.099810 X0=0.225561 B1=1.295650 B0=0.000000 NormAmps=105.000000 Units=km
New LineCode.PEC_#2_AL-J_TRXLPE_D_B nPhases=3 R1=0.947454 X1=0.097993 R0=1.808770 X0=0.447492 B1=27.157400 B0=0.000000 NormAmps=182.000000 Units=km
New LineCode.PEC_#2_AL-J_TRXLPE_I_C nPhases=3 R1=0.947454 X1=0.097993 R0=1.808770 X0=0.447492 B1=27.157400 B0=0.000000 NormAmps=182.000000 Units=km
New LineCode.PEC_#2_CU_TRXLPE_D_B nPhases=3 R1=0.477840 X1=0.804253 R0=0.193939 X0=0.178765 B1=36.131001 B0=0.000000 NormAmps=160.000000 Units=km
New LineCode.PEC_#2_CU_TRXLPE_I_C nPhases=3 R1=0.477840 X1=0.804253 R0=0.193939 X0=0.178765 B1=36.131001 B0=0.000000 NormAmps=160.000000 Units=km
New LineCode.PEC_#4_AL_TRXLPE_D_B nPhases=3 R1=1.282170 X1=0.434635 R0=1.282170 X0=0.434635 B1=1.130240 B0=0.000000 NormAmps=150.000000 Units=km
New LineCode.PEC_#4_AL_TRXLPE_I_C nPhases=3 R1=1.282170 X1=0.434635 R0=1.282170 X0=0.434635 B1=1.130240 B0=0.000000 NormAmps=150.000000 Units=km
New LineCode.PEC_#8_CU_TRXLPE_D_B nPhases=3 R1=1.467190 X1=0.329075 R0=1.699510 X0=1.134250 B1=1.921630 B0=0.000000 NormAmps=65.000000 Units=km
New LineCode.PEC_#8_CU_TRXLPE_I_C nPhases=3 R1=1.467190 X1=0.329075 R0=1.699510 X0=1.134250 B1=1.921630 B0=0.000000 NormAmps=65.000000 Units=km
New LineCode.PEC_1/0_AL_TRXLPE_D_B nPhases=3 R1=0.419307 X1=0.116873 R0=0.711433 X0=0.128881 B1=1.516180 B0=0.000000 NormAmps=135.000000 Units=km
New LineCode.PEC_1/0_AL_TRXLPE_I_C nPhases=3 R1=0.419307 X1=0.116873 R0=0.711433 X0=0.128881 B1=1.516180 B0=0.000000 NormAmps=135.000000 Units=km
New LineCode.PEC_1/0_AL-J_TRXLPE_D_B nPhases=3 R1=0.649774 X1=0.097375 R0=1.705450 X0=0.617686 B1=33.946701 B0=0.000000 NormAmps=236.000000 Units=km
New LineCode.PEC_1/0_AL-J_TRXLPE_I_C nPhases=3 R1=0.649774 X1=0.097375 R0=1.705450 X0=0.617686 B1=33.946701 B0=0.000000 NormAmps=236.000000 Units=km
New LineCode.PEC_1/0_CU_TRXLPE_D_B nPhases=3 R1=0.321507 X1=0.515794 R0=0.166140 X0=0.105831 B1=42.969299 B0=0.000000 NormAmps=217.000000 Units=km
New LineCode.PEC_1/0_CU_TRXLPE_I_C nPhases=3 R1=0.321507 X1=0.515794 R0=0.166140 X0=0.105831 B1=42.969299 B0=0.000000 NormAmps=217.000000 Units=km
New LineCode.PEC_1000_AL_TRXLPE_D_B nPhases=3 R1=0.066680 X1=0.311700 R0=0.081969 X0=0.092356 B1=56.364300 B0=0.000000 NormAmps=625.000000 Units=km
New LineCode.PEC_1000_AL_TRXLPE_I_C nPhases=3 R1=0.066680 X1=0.311700 R0=0.081969 X0=0.092356 B1=56.364300 B0=0.000000 NormAmps=625.000000 Units=km
New LineCode.PEC_2/0_AL_TRXLPE_D_B nPhases=3 R1=0.336218 X1=0.112356 R0=0.570118 X0=0.102201 B1=1.516260 B0=0.000000 NormAmps=223.000000 Units=km
New LineCode.PEC_2/0_AL_TRXLPE_I_C nPhases=3 R1=0.336218 X1=0.112356 R0=0.570118 X0=0.102201 B1=1.516260 B0=0.000000 NormAmps=223.000000 Units=km
New LineCode.PEC_2/0_CU_TRXLPE_D_B nPhases=3 R1=0.207723 X1=0.939619 R0=0.094788 X0=0.891705 B1=58.657001 B0=0.000000 NormAmps=245.000000 Units=km
New LineCode.PEC_2/0_CU_TRXLPE_I_C nPhases=3 R1=0.207723 X1=0.939619 R0=0.094788 X0=0.891705 B1=58.657001 B0=0.000000 NormAmps=245.000000 Units=km
New LineCode.PEC_250_CU_TRXLPE_D_B nPhases=3 R1=0.099228 X1=0.260194 R0=0.279268 X0=0.775639 B1=2.467120 B0=0.000000 NormAmps=360.000000 Units=km
New LineCode.PEC_250_CU_TRXLPE_I_C nPhases=3 R1=0.099228 X1=0.260194 R0=0.279268 X0=0.775639 B1=2.467120 B0=0.000000 NormAmps=360.000000 Units=km
New LineCode.PEC_300_CU_TRXLPE_D_B nPhases=3 R1=0.102278 X1=0.089382 R0=0.284017 X0=0.064943 B1=4.438170 B0=0.000000 NormAmps=425.000000 Units=km
New LineCode.PEC_300_CU_TRXLPE_I_C nPhases=3 R1=0.102278 X1=0.089382 R0=0.284017 X0=0.064943 B1=4.438170 B0=0.000000 NormAmps=425.000000 Units=km
New LineCode.PEC_350_AL_TRXLPE_D_B nPhases=3 R1=0.164055 X1=0.480620 R0=0.158688 X0=0.152781 B1=47.984501 B0=0.000000 NormAmps=313.000000 Units=km
New LineCode.PEC_350_AL_TRXLPE_I_C nPhases=3 R1=0.164055 X1=0.480620 R0=0.158688 X0=0.152781 B1=47.984501 B0=0.000000 NormAmps=313.000000 Units=km
New LineCode.PEC_350_CU_TRXLPE_D_B nPhases=3 R1=0.091738 X1=0.094286 R0=0.240426 X0=0.065058 B1=2.343290 B0=0.000000 NormAmps=470.000000 Units=km
New LineCode.PEC_350_CU_TRXLPE_I_C nPhases=3 R1=0.091738 X1=0.094286 R0=0.240426 X0=0.065058 B1=2.343290 B0=0.000000 NormAmps=470.000000 Units=km
New LineCode.PEC_4/0_AL_TRXLPE_D_B nPhases=3 R1=0.221314 X1=0.114440 R0=0.362009 X0=0.083436 B1=1.185410 B0=0.000000 NormAmps=198.000000 Units=km
New LineCode.PEC_4/0_AL_TRXLPE_I_C nPhases=3 R1=0.221314 X1=0.114440 R0=0.362009 X0=0.083436 B1=1.185410 B0=0.000000 NormAmps=198.000000 Units=km
New LineCode.PEC_4/0_CU_TRXLPE_D_B nPhases=3 R1=0.174480 X1=0.468689 R0=0.165792 X0=0.140618 B1=55.341702 B0=0.000000 NormAmps=304.000000 Units=km
New LineCode.PEC_4/0_CU_TRXLPE_I_C nPhases=3 R1=0.174480 X1=0.468689 R0=0.165792 X0=0.140618 B1=55.341702 B0=0.000000 NormAmps=304.000000 Units=km
New LineCode.PEC_500_AL_TRXLPE_D_B nPhases=3 R1=0.101043 X1=0.092047 R0=0.282240 X0=0.069267 B1=2.701670 B0=0.000000 NormAmps=441.000000 Units=km
New LineCode.PEC_500_AL_TRXLPE_I_C nPhases=3 R1=0.101043 X1=0.092047 R0=0.282240 X0=0.069267 B1=2.701670 B0=0.000000 NormAmps=441.000000 Units=km
New LineCode.PEC_500_CU_TRXLPE_D_B nPhases=3 R1=0.062046 X1=0.078108 R0=0.166333 X0=0.049884 B1=5.458400 B0=0.000000 NormAmps=517.000000 Units=km
New LineCode.PEC_500_CU_TRXLPE_I_C nPhases=3 R1=0.062046 X1=0.078108 R0=0.166333 X0=0.049884 B1=5.458400 B0=0.000000 NormAmps=517.000000 Units=km
New LineCode.PEC_750_AL_TRXLPE_D_B nPhases=3 R1=0.076603 X1=0.075792 R0=0.189614 X0=0.049267 B1=6.671660 B0=0.000000 NormAmps=530.000000 Units=km
New LineCode.PEC_750_AL_TRXLPE_I_C nPhases=3 R1=0.076603 X1=0.075792 R0=0.189614 X0=0.049267 B1=6.671660 B0=0.000000 NormAmps=530.000000 Units=km
New LineCode.PEC1_#1/0_AWG_AL_EPR_CN_D_B nPhases=1 R1=0.596516 X1=0.105633 R0=1.783330 X0=0.944484 B1=60.826000 B0=0.000000 NormAmps=135.000000 Units=km
New LineCode.PEC1_#1/0_AWG_AL_XLPE_JACKET_CN_ nPhases=1 R1=0.596516 X1=0.105633 R0=1.783335 X0=0.944484 B1=60.826007 B0=0.000000 NormAmps=135.000000 Units=km
New LineCode.PEC1_#1/0_AWG_AL_XLPE_NON-JACKET nPhases=1 R1=0.596516 X1=0.105633 R0=1.783335 X0=0.944484 B1=60.826007 B0=0.000000 NormAmps=135.000000 Units=km
New LineCode.PEC1_#1_AL_TRXLPE_CIC nPhases=1 R1=0.571661 X1=0.975553 R0=0.192625 X0=0.236121 B1=27.545401 B0=0.000000 NormAmps=162.000000 Units=km
New LineCode.PEC1_#1_AL_TRXLPE_D_B nPhases=1 R1=0.571661 X1=0.975553 R0=0.192625 X0=0.236121 B1=27.545378 B0=0.000000 NormAmps=162.000000 Units=km
New LineCode.PEC1_#1_AL_TRXLPE_D_B_W_S nPhases=3 R1=0.571661 X1=0.975553 R0=0.192625 X0=0.236121 B1=27.545378 B0=0.000000 NormAmps=162.000000 Units=km
New LineCode.PEC1_#1_AL_TRXLPE_I_C nPhases=1 R1=0.571661 X1=0.975552 R0=0.192625 X0=0.236121 B1=27.545376 B0=0.000000 NormAmps=162.000000 Units=km
New LineCode.PEC1_#2_AL_TRXLPE_CIC nPhases=1 R1=0.956911 X1=0.118060 R0=2.205867 X0=1.491290 B1=47.304973 B0=0.000000 NormAmps=105.000000 Units=km
New LineCode.PEC1_#2_AL_TRXLPE_D_B nPhases=1 R1=0.956911 X1=0.118060 R0=2.205867 X0=1.491290 B1=47.304973 B0=0.000000 NormAmps=105.000000 Units=km
New LineCode.PEC1_#2_AL_TRXLPE_D_B_W_S nPhases=3 R1=0.956911 X1=0.118060 R0=2.205867 X0=1.491290 B1=47.304973 B0=0.000000 NormAmps=105.000000 Units=km
New LineCode.PEC1_#2_AL_TRXLPE_I_C nPhases=1 R1=0.956911 X1=0.118060 R0=2.205870 X0=1.491290 B1=47.305000 B0=0.000000 NormAmps=105.000000 Units=km
New LineCode.PEC1_#2_AL-J_TRXLPE_CIC nPhases=1 R1=0.956911 X1=0.118060 R0=2.205867 X0=1.491290 B1=47.304973 B0=0.000000 NormAmps=182.000000 Units=km
New LineCode.PEC1_#2_AL-J_TRXLPE_D_B nPhases=1 R1=0.956911 X1=0.118060 R0=2.205867 X0=1.491290 B1=47.304973 B0=0.000000 NormAmps=182.000000 Units=km
New LineCode.PEC1_#2_AL-J_TRXLPE_D_B_W_S nPhases=3 R1=0.956911 X1=0.118060 R0=2.205867 X0=1.491290 B1=47.304973 B0=0.000000 NormAmps=182.000000 Units=km
New LineCode.PEC1_#2_AL-J_TRXLPE_I_C nPhases=1 R1=0.956911 X1=0.118060 R0=2.205867 X0=1.491290 B1=47.304974 B0=0.000000 NormAmps=182.000000 Units=km
New LineCode.PEC1_#2_AWG_AL_XLPE_JACKET_CN_D_ nPhases=1 R1=0.956911 X1=0.118060 R0=2.205870 X0=1.491290 B1=47.305000 B0=0.000000 NormAmps=182.000000 Units=km
New LineCode.PEC1_#2_AWG_AL_XLPE_JACKET_CN_I_ nPhases=1 R1=0.956911 X1=0.118060 R0=2.205870 X0=1.491290 B1=47.305000 B0=0.000000 NormAmps=182.000000 Units=km
New LineCode.PEC1_#2_CU_TRXLPE_CIC nPhases=1 R1=0.584089 X1=0.118060 R0=1.764690 X0=0.963125 B1=46.783001 B0=0.000000 NormAmps=160.000000 Units=km
New LineCode.PEC1_#2_CU_TRXLPE_D_B nPhases=1 R1=0.584089 X1=0.118060 R0=1.764694 X0=0.963125 B1=46.783023 B0=0.000000 NormAmps=160.000000 Units=km
New LineCode.PEC1_#2_CU_TRXLPE_D_B_W_S nPhases=3 R1=0.584089 X1=0.118060 R0=1.764694 X0=0.963125 B1=46.783023 B0=0.000000 NormAmps=160.000000 Units=km
New LineCode.PEC1_#2_CU_TRXLPE_I_C nPhases=1 R1=0.584089 X1=0.118060 R0=1.764694 X0=0.963125 B1=46.783023 B0=0.000000 NormAmps=160.000000 Units=km
New LineCode.PEC1_#4_AL_TRXLPE_CIC nPhases=1 R1=1.280024 X1=0.428746 R0=1.280024 X0=0.428746 B1=1.124681 B0=0.000000 NormAmps=150.000000 Units=km
New LineCode.PEC1_#4_AL_TRXLPE_D_B nPhases=1 R1=1.280024 X1=0.428746 R0=1.280024 X0=0.428746 B1=1.124681 B0=0.000000 NormAmps=150.000000 Units=km
New LineCode.PEC1_#4_AL_TRXLPE_D_B_W_S nPhases=3 R1=1.280024 X1=0.428746 R0=1.280024 X0=0.428746 B1=1.124681 B0=0.000000 NormAmps=150.000000 Units=km
New LineCode.PEC1_#4_AL_TRXLPE_I_C nPhases=1 R1=1.280024 X1=0.428746 R0=1.280024 X0=0.428746 B1=1.124682 B0=0.000000 NormAmps=150.000000 Units=km
New LineCode.PEC1_#8_CU_TRXLPE_CIC nPhases=1 R1=1.466435 X1=0.323113 R0=1.696343 X0=1.130895 B1=1.920036 B0=0.000000 NormAmps=65.000000 Units=km
New LineCode.PEC1_#8_CU_TRXLPE_D_B nPhases=1 R1=1.466435 X1=0.323113 R0=1.696343 X0=1.130895 B1=1.920036 B0=0.000000 NormAmps=65.000000 Units=km
New LineCode.PEC1_#8_CU_TRXLPE_D_B_W_S nPhases=3 R1=1.466435 X1=0.323113 R0=1.696343 X0=1.130895 B1=1.920036 B0=0.000000 NormAmps=65.000000 Units=km
New LineCode.PEC1_#8_CU_TRXLPE_I_C nPhases=1 R1=1.466436 X1=0.323113 R0=1.696343 X0=1.130895 B1=1.920036 B0=0.000000 NormAmps=65.000000 Units=km
New LineCode.PEC1_1/0_AL_TRXLPE_CIC nPhases=1 R1=0.596516 X1=0.105633 R0=1.783335 X0=0.944484 B1=60.826007 B0=0.000000 NormAmps=135.000000 Units=km
New LineCode.PEC1_1/0_AL_TRXLPE_D_B nPhases=1 R1=0.596516 X1=0.105633 R0=1.783335 X0=0.944484 B1=60.826007 B0=0.000000 NormAmps=135.000000 Units=km
New LineCode.PEC1_1/0_AL_TRXLPE_D_B_W_S nPhases=3 R1=0.596516 X1=0.105633 R0=1.783335 X0=0.944484 B1=60.826007 B0=0.000000 NormAmps=135.000000 Units=km
New LineCode.PEC1_1/0_AL_TRXLPE_I_C nPhases=1 R1=0.596516 X1=0.105633 R0=1.783335 X0=0.944484 B1=60.826007 B0=0.000000 NormAmps=135.000000 Units=km
New LineCode.PEC1_1/0_AL_XLPE_D_B nPhases=1 R1=0.596516 X1=0.105633 R0=1.783335 X0=0.944484 B1=60.826007 B0=0.000000 NormAmps=236.000000 Units=km
New LineCode.PEC1_1/0_AL_XLPE_D_B_W_S nPhases=3 R1=0.596516 X1=0.105633 R0=1.783335 X0=0.944484 B1=60.826007 B0=0.000000 NormAmps=236.000000 Units=km
New LineCode.PEC1_1/0_AL_XLPE_I_C nPhases=1 R1=0.596516 X1=0.105633 R0=1.783335 X0=0.944484 B1=60.826007 B0=0.000000 NormAmps=135.000000 Units=km
New LineCode.PEC1_1/0_AL-J_TRXLPE_CIC nPhases=1 R1=0.596516 X1=0.105633 R0=1.783330 X0=0.944484 B1=60.826000 B0=0.000000 NormAmps=236.000000 Units=km
New LineCode.PEC1_1/0_AL-J_TRXLPE_D_B nPhases=1 R1=0.596516 X1=0.105633 R0=1.783335 X0=0.944484 B1=60.826007 B0=0.000000 NormAmps=236.000000 Units=km
New LineCode.PEC1_1/0_AL-J_TRXLPE_D_B_W_S nPhases=3 R1=0.596516 X1=0.105633 R0=1.783335 X0=0.944484 B1=60.826007 B0=0.000000 NormAmps=236.000000 Units=km
New LineCode.PEC1_1/0_AL-J_TRXLPE_I_C nPhases=1 R1=0.596516 X1=0.105633 R0=1.783335 X0=0.944484 B1=60.826007 B0=0.000000 NormAmps=236.000000 Units=km
New LineCode.PEC1_1/0_CU_TRXLPE_CIC nPhases=1 R1=0.316899 X1=0.515738 R0=0.161556 X0=0.105633 B1=42.967806 B0=0.000000 NormAmps=217.000000 Units=km
New LineCode.PEC1_1/0_CU_TRXLPE_D_B nPhases=1 R1=0.316899 X1=0.515738 R0=0.161556 X0=0.105633 B1=42.967806 B0=0.000000 NormAmps=217.000000 Units=km
New LineCode.PEC1_1/0_CU_TRXLPE_D_B_W_S nPhases=3 R1=0.316899 X1=0.515738 R0=0.161556 X0=0.105633 B1=42.967806 B0=0.000000 NormAmps=217.000000 Units=km
New LineCode.PEC1_1/0_CU_TRXLPE_I_C nPhases=1 R1=0.316899 X1=0.515738 R0=0.161556 X0=0.105633 B1=42.967805 B0=0.000000 NormAmps=217.000000 Units=km
New LineCode.PEC1_1/0_XLPE_CIC nPhases=1 R1=0.596516 X1=0.105633 R0=1.783335 X0=0.944484 B1=60.826007 B0=0.000000 NormAmps=236.000000 Units=km
New LineCode.PEC1_1000_AL_TRXLPE_CIC nPhases=1 R1=0.062137 X1=0.093206 R0=1.143323 X0=0.702149 B1=126.902600 B0=0.000000 NormAmps=625.000000 Units=km
New LineCode.PEC1_1000_AL_TRXLPE_D_B nPhases=1 R1=0.062137 X1=0.093206 R0=1.143323 X0=0.702149 B1=126.902600 B0=0.000000 NormAmps=625.000000 Units=km
New LineCode.PEC1_1000_AL_TRXLPE_D_B_W_S nPhases=3 R1=0.062137 X1=0.093206 R0=1.143323 X0=0.702149 B1=126.902600 B0=0.000000 NormAmps=625.000000 Units=km
New LineCode.PEC1_1000_AL_TRXLPE_I_C nPhases=1 R1=0.062137 X1=0.093206 R0=1.143323 X0=0.702149 B1=126.902600 B0=0.000000 NormAmps=625.000000 Units=km
New LineCode.PEC1_2/0_AL_TRXLPE_CIC nPhases=1 R1=0.335540 X1=0.111847 R0=0.565448 X0=0.099419 B1=1.516145 B0=0.000000 NormAmps=223.000000 Units=km
New LineCode.PEC1_2/0_AL_TRXLPE_D_B nPhases=1 R1=0.335540 X1=0.111847 R0=0.565448 X0=0.099419 B1=1.516145 B0=0.000000 NormAmps=223.000000 Units=km
New LineCode.PEC1_2/0_AL_TRXLPE_D_B_W_S nPhases=3 R1=0.335540 X1=0.111847 R0=0.565448 X0=0.099419 B1=1.516145 B0=0.000000 NormAmps=223.000000 Units=km
New LineCode.PEC1_2/0_AL_TRXLPE_I_C nPhases=1 R1=0.335540 X1=0.111847 R0=0.565448 X0=0.099419 B1=1.516145 B0=0.000000 NormAmps=223.000000 Units=km
New LineCode.PEC1_2/0_CU_TRXLPE_CIC nPhases=1 R1=0.205052 X1=0.938270 R0=0.093206 X0=0.888560 B1=58.651208 B0=0.000000 NormAmps=245.000000 Units=km
New LineCode.PEC1_2/0_CU_TRXLPE_D_B nPhases=1 R1=0.205052 X1=0.938270 R0=0.093206 X0=0.888560 B1=58.651208 B0=0.000000 NormAmps=245.000000 Units=km
New LineCode.PEC1_2/0_CU_TRXLPE_D_B_W_S nPhases=3 R1=0.205052 X1=0.938270 R0=0.093206 X0=0.888560 B1=58.651208 B0=0.000000 NormAmps=245.000000 Units=km
New LineCode.PEC1_2/0_CU_TRXLPE_I_C nPhases=1 R1=0.205052 X1=0.938270 R0=0.093206 X0=0.888561 B1=58.651209 B0=0.000000 NormAmps=245.000000 Units=km
New LineCode.PEC1_250_CU_TRXLPE_CIC nPhases=1 R1=0.093206 X1=0.254762 R0=0.273403 X0=0.770500 B1=2.466843 B0=0.000000 NormAmps=360.000000 Units=km
New LineCode.PEC1_250_CU_TRXLPE_D_B nPhases=1 R1=0.093206 X1=0.254762 R0=0.273403 X0=0.770500 B1=2.466843 B0=0.000000 NormAmps=360.000000 Units=km
New LineCode.PEC1_250_CU_TRXLPE_D_B_W_S nPhases=3 R1=0.093206 X1=0.254762 R0=0.273403 X0=0.770500 B1=2.466843 B0=0.000000 NormAmps=360.000000 Units=km
New LineCode.PEC1_250_CU_TRXLPE_I_C nPhases=1 R1=0.093206 X1=0.254762 R0=0.273403 X0=0.770500 B1=2.466843 B0=0.000000 NormAmps=360.000000 Units=km
New LineCode.PEC1_300_CU_TRXLPE_CIC nPhases=1 R1=0.099419 X1=0.086992 R0=0.279617 X0=0.062137 B1=4.436589 B0=0.000000 NormAmps=425.000000 Units=km
New LineCode.PEC1_300_CU_TRXLPE_D_B nPhases=1 R1=0.099419 X1=0.086992 R0=0.279617 X0=0.062137 B1=4.436589 B0=0.000000 NormAmps=425.000000 Units=km
New LineCode.PEC1_300_CU_TRXLPE_D_B_W_S nPhases=3 R1=0.099419 X1=0.086992 R0=0.279617 X0=0.062137 B1=4.436589 B0=0.000000 NormAmps=425.000000 Units=km
New LineCode.PEC1_300_CU_TRXLPE_I_C nPhases=1 R1=0.099419 X1=0.086992 R0=0.279617 X0=0.062137 B1=4.436589 B0=0.000000 NormAmps=425.000000 Units=km
New LineCode.PEC1_350_AL_TRXLPE_CIC nPhases=1 R1=0.180198 X1=0.074565 R0=1.292450 X0=0.801569 B1=83.791901 B0=0.000000 NormAmps=313.000000 Units=km
New LineCode.PEC1_350_AL_TRXLPE_D_B nPhases=1 R1=0.180198 X1=0.074565 R0=1.292452 X0=0.801569 B1=83.791883 B0=0.000000 NormAmps=313.000000 Units=km
New LineCode.PEC1_350_AL_TRXLPE_D_B_W_S nPhases=3 R1=0.180198 X1=0.074565 R0=1.292452 X0=0.801569 B1=83.791883 B0=0.000000 NormAmps=313.000000 Units=km
New LineCode.PEC1_350_AL_TRXLPE_I_C nPhases=1 R1=0.180198 X1=0.074565 R0=1.292452 X0=0.801569 B1=83.791879 B0=0.000000 NormAmps=313.000000 Units=km
New LineCode.PEC1_350_AL-J_TRXLPE_D_B nPhases=1 R1=0.209000 X1=0.073000 R0=2.412000 X0=2.133000 B1=8.300000 B0=0.000000 NormAmps=470.000000 Units=km
New LineCode.PEC1_350_CU_TRXLPE_CIC nPhases=1 R1=0.086992 X1=0.093206 R0=0.236121 X0=0.062137 B1=2.342569 B0=0.000000 NormAmps=470.000000 Units=km
New LineCode.PEC1_350_CU_TRXLPE_D_B nPhases=1 R1=0.086992 X1=0.093206 R0=0.236121 X0=0.062137 B1=2.342570 B0=0.000000 NormAmps=470.000000 Units=km
New LineCode.PEC1_350_CU_TRXLPE_D_B_W_S nPhases=3 R1=0.086992 X1=0.093206 R0=0.236121 X0=0.062137 B1=2.342569 B0=0.000000 NormAmps=470.000000 Units=km
New LineCode.PEC1_350_CU_TRXLPE_I_C nPhases=1 R1=0.086992 X1=0.093206 R0=0.236121 X0=0.062137 B1=2.342569 B0=0.000000 NormAmps=470.000000 Units=km
New LineCode.PEC1_350KCMIL_AL_XLPE_LC_SHIELD_ nPhases=1 R1=0.180198 X1=0.074565 R0=1.292452 X0=0.801569 B1=83.791883 B0=0.000000 NormAmps=313.000000 Units=km
New LineCode.PEC1_4/0_AL_TRXLPE_CIC nPhases=1 R1=0.217480 X1=0.111847 R0=0.360395 X0=0.080778 B1=1.180605 B0=0.000000 NormAmps=198.000000 Units=km
New LineCode.PEC1_4/0_AL_TRXLPE_D_B nPhases=1 R1=0.217480 X1=0.111847 R0=0.360395 X0=0.080778 B1=1.180605 B0=0.000000 NormAmps=198.000000 Units=km
New LineCode.PEC1_4/0_AL_TRXLPE_D_B_W_S nPhases=3 R1=0.217480 X1=0.111847 R0=0.360395 X0=0.080778 B1=1.180605 B0=0.000000 NormAmps=198.000000 Units=km
New LineCode.PEC1_4/0_AL_TRXLPE_I_C nPhases=1 R1=0.217480 X1=0.111847 R0=0.360395 X0=0.080778 B1=1.180605 B0=0.000000 NormAmps=198.000000 Units=km
New LineCode.PEC1_4/0_AL_XLPECN_D_B nPhases=1 R1=0.217480 X1=0.111847 R0=0.360395 X0=0.080778 B1=1.180605 B0=0.000000 NormAmps=198.000000 Units=km
New LineCode.PEC1_4/0_AL_XLPECN_D_B_W_S nPhases=3 R1=0.217480 X1=0.111847 R0=0.360395 X0=0.080778 B1=1.180605 B0=0.000000 NormAmps=198.000000 Units=km
New LineCode.PEC1_4/0_AL_XLPECN_I_C nPhases=1 R1=0.217480 X1=0.111847 R0=0.360395 X0=0.080778 B1=1.180605 B0=0.000000 NormAmps=198.000000 Units=km
New LineCode.PEC1_4/0_CU_TRXLPE_CIC nPhases=1 R1=0.173984 X1=0.466028 R0=0.161556 X0=0.136702 B1=55.339300 B0=0.000000 NormAmps=304.000000 Units=km
New LineCode.PEC1_4/0_CU_TRXLPE_D_B nPhases=1 R1=0.173984 X1=0.466028 R0=0.161556 X0=0.136702 B1=55.339300 B0=0.000000 NormAmps=304.000000 Units=km
New LineCode.PEC1_4/0_CU_TRXLPE_D_B_W_S nPhases=3 R1=0.173984 X1=0.466028 R0=0.161556 X0=0.136702 B1=55.339300 B0=0.000000 NormAmps=304.000000 Units=km
New LineCode.PEC1_4/0_CU_TRXLPE_I_C nPhases=1 R1=0.173984 X1=0.466028 R0=0.161556 X0=0.136702 B1=55.339300 B0=0.000000 NormAmps=304.000000 Units=km
New LineCode.PEC1_4/0_CU_XLPE_D_B nPhases=1 R1=0.173984 X1=0.466028 R0=0.161556 X0=0.136702 B1=55.339300 B0=0.000000 NormAmps=304.000000 Units=km
New LineCode.PEC1_4/0_CU_XLPE_I_C nPhases=1 R1=0.173984 X1=0.466028 R0=0.161556 X0=0.136702 B1=55.339300 B0=0.000000 NormAmps=304.000000 Units=km
New LineCode.PEC1_500_AL_TRXLPE_CIC nPhases=1 R1=0.099419 X1=0.086992 R0=0.279617 X0=0.068351 B1=2.696750 B0=0.000000 NormAmps=441.000000 Units=km
New LineCode.PEC1_500_AL_TRXLPE_D_B nPhases=1 R1=0.099419 X1=0.086992 R0=0.279617 X0=0.068351 B1=2.696750 B0=0.000000 NormAmps=441.000000 Units=km
New LineCode.PEC1_500_AL_TRXLPE_D_B_W_S nPhases=3 R1=0.099419 X1=0.086992 R0=0.279617 X0=0.068351 B1=2.696750 B0=0.000000 NormAmps=441.000000 Units=km
New LineCode.PEC1_500_AL_TRXLPE_I_C nPhases=1 R1=0.099419 X1=0.086992 R0=0.279617 X0=0.068351 B1=2.696750 B0=0.000000 NormAmps=441.000000 Units=km
New LineCode.PEC1_500_AL_XLPE_D_B nPhases=1 R1=0.099419 X1=0.086992 R0=0.279617 X0=0.068351 B1=2.696750 B0=0.000000 NormAmps=441.000000 Units=km
New LineCode.PEC1_500_CU_TRXLPE_CIC nPhases=1 R1=0.055923 X1=0.074565 R0=0.161556 X0=0.049710 B1=5.455637 B0=0.000000 NormAmps=517.000000 Units=km
New LineCode.PEC1_500_CU_TRXLPE_D_B nPhases=1 R1=0.055923 X1=0.074565 R0=0.161556 X0=0.049710 B1=5.455637 B0=0.000000 NormAmps=517.000000 Units=km
New LineCode.PEC1_500_CU_TRXLPE_D_B_W_S nPhases=3 R1=0.055923 X1=0.074565 R0=0.161556 X0=0.049710 B1=5.455637 B0=0.000000 NormAmps=517.000000 Units=km
New LineCode.PEC1_500_CU_TRXLPE_I_C nPhases=1 R1=0.055923 X1=0.074565 R0=0.161556 X0=0.049710 B1=5.455637 B0=0.000000 NormAmps=517.000000 Units=km
New LineCode.PEC1_750_AL_TRXLPE_CIC nPhases=1 R1=0.080778 X1=0.062137 R0=1.217887 X0=0.888560 B1=125.293250 B0=0.000000 NormAmps=530.000000 Units=km
New LineCode.PEC1_750_AL_TRXLPE_D_B nPhases=1 R1=0.080778 X1=0.062137 R0=1.217887 X0=0.888560 B1=125.293250 B0=0.000000 NormAmps=530.000000 Units=km
New LineCode.PEC1_750_AL_TRXLPE_D_B_W_S nPhases=3 R1=0.080778 X1=0.062137 R0=1.217887 X0=0.888560 B1=125.293250 B0=0.000000 NormAmps=530.000000 Units=km
New LineCode.PEC1_750_AL_TRXLPE_I_C nPhases=1 R1=0.080778 X1=0.062137 R0=1.217887 X0=0.888561 B1=125.293250 B0=0.000000 NormAmps=530.000000 Units=km
New LineCode.PEC2_#1/0_AWG_AL_XLPE_JACKET_CN_ nPhases=2 R1=0.602730 X1=0.161556 R0=1.609351 X0=0.882347 B1=45.142604 B0=0.000000 NormAmps=135.000000 Units=km
New LineCode.PEC2_#1_AL_TRXLPE_CIC nPhases=2 R1=0.571661 X1=0.975553 R0=0.192625 X0=0.236121 B1=27.545378 B0=0.000000 NormAmps=162.000000 Units=km
New LineCode.PEC2_#1_AL_TRXLPE_D_B nPhases=2 R1=0.571661 X1=0.975553 R0=0.192625 X0=0.236121 B1=27.545378 B0=0.000000 NormAmps=162.000000 Units=km
New LineCode.PEC2_#1_AL_TRXLPE_D_B_W_S nPhases=3 R1=0.571661 X1=0.975553 R0=0.192625 X0=0.236121 B1=27.545378 B0=0.000000 NormAmps=162.000000 Units=km
New LineCode.PEC2_#1_AL_TRXLPE_I_C nPhases=2 R1=0.571661 X1=0.975552 R0=0.192625 X0=0.236121 B1=27.545376 B0=0.000000 NormAmps=162.000000 Units=km
New LineCode.PEC2_#2_AL_TRXLPE_CIC nPhases=2 R1=0.956911 X1=0.161556 R0=1.895182 X0=0.714577 B1=47.304973 B0=0.000000 NormAmps=105.000000 Units=km
New LineCode.PEC2_#2_AL_TRXLPE_D_B nPhases=2 R1=0.956911 X1=0.161556 R0=1.895182 X0=0.714577 B1=47.304973 B0=0.000000 NormAmps=105.000000 Units=km
New LineCode.PEC2_#2_AL_TRXLPE_D_B_W_S nPhases=3 R1=0.956911 X1=0.161556 R0=1.895182 X0=0.714577 B1=47.304973 B0=0.000000 NormAmps=105.000000 Units=km
New LineCode.PEC2_#2_AL_TRXLPE_I_C nPhases=2 R1=0.956911 X1=0.161556 R0=1.895182 X0=0.714577 B1=47.304974 B0=0.000000 NormAmps=105.000000 Units=km
New LineCode.PEC2_#2_AL-J_TRXLPE_CIC nPhases=2 R1=0.956911 X1=0.161556 R0=1.895182 X0=0.714577 B1=47.304973 B0=0.000000 NormAmps=182.000000 Units=km
New LineCode.PEC2_#2_AL-J_TRXLPE_D_B nPhases=2 R1=0.956911 X1=0.161556 R0=1.895182 X0=0.714577 B1=47.304973 B0=0.000000 NormAmps=182.000000 Units=km
New LineCode.PEC2_#2_AL-J_TRXLPE_D_B_W_S nPhases=3 R1=0.956911 X1=0.161556 R0=1.895182 X0=0.714577 B1=47.304973 B0=0.000000 NormAmps=182.000000 Units=km
New LineCode.PEC2_#2_AL-J_TRXLPE_I_C nPhases=2 R1=0.956911 X1=0.161556 R0=1.895182 X0=0.714577 B1=47.304974 B0=0.000000 NormAmps=182.000000 Units=km
New LineCode.PEC2_#2_AWG_AL_XLPE_JACKET_CN_D_ nPhases=2 R1=0.956911 X1=0.161556 R0=1.895182 X0=0.714577 B1=47.304973 B0=0.000000 NormAmps=182.000000 Units=km
New LineCode.PEC2_#2_CU_TRXLPE_CIC nPhases=2 R1=0.590302 X1=0.173984 R0=1.304879 X0=0.441173 B1=46.783023 B0=0.000000 NormAmps=160.000000 Units=km
New LineCode.PEC2_#2_CU_TRXLPE_D_B nPhases=2 R1=0.590302 X1=0.173984 R0=1.304879 X0=0.441173 B1=46.783023 B0=0.000000 NormAmps=160.000000 Units=km
New LineCode.PEC2_#2_CU_TRXLPE_D_B_W_S nPhases=3 R1=0.590302 X1=0.173984 R0=1.304879 X0=0.441173 B1=46.783023 B0=0.000000 NormAmps=160.000000 Units=km
New LineCode.PEC2_#2_CU_TRXLPE_I_C nPhases=2 R1=0.590302 X1=0.173984 R0=1.304879 X0=0.441173 B1=46.783023 B0=0.000000 NormAmps=160.000000 Units=km
New LineCode.PEC2_#4_AL_TRXLPE_CIC nPhases=2 R1=1.280024 X1=0.428746 R0=1.280024 X0=0.428746 B1=1.124681 B0=0.000000 NormAmps=150.000000 Units=km
New LineCode.PEC2_#4_AL_TRXLPE_D_B nPhases=2 R1=1.280024 X1=0.428746 R0=1.280024 X0=0.428746 B1=1.124681 B0=0.000000 NormAmps=150.000000 Units=km
New LineCode.PEC2_#4_AL_TRXLPE_D_B_W_S nPhases=3 R1=1.280024 X1=0.428746 R0=1.280024 X0=0.428746 B1=1.124681 B0=0.000000 NormAmps=150.000000 Units=km
New LineCode.PEC2_#4_AL_TRXLPE_I_C nPhases=2 R1=1.280024 X1=0.428746 R0=1.280024 X0=0.428746 B1=1.124682 B0=0.000000 NormAmps=150.000000 Units=km
New LineCode.PEC2_#8_CU_TRXLPE_CIC nPhases=2 R1=1.466435 X1=0.323113 R0=1.696343 X0=1.130895 B1=1.920036 B0=0.000000 NormAmps=65.000000 Units=km
New LineCode.PEC2_#8_CU_TRXLPE_D_B nPhases=2 R1=1.466435 X1=0.323113 R0=1.696343 X0=1.130895 B1=1.920036 B0=0.000000 NormAmps=65.000000 Units=km
New LineCode.PEC2_#8_CU_TRXLPE_D_B_W_S nPhases=3 R1=1.466435 X1=0.323113 R0=1.696343 X0=1.130895 B1=1.920036 B0=0.000000 NormAmps=65.000000 Units=km
New LineCode.PEC2_#8_CU_TRXLPE_I_C nPhases=2 R1=1.466436 X1=0.323113 R0=1.696343 X0=1.130895 B1=1.920036 B0=0.000000 NormAmps=65.000000 Units=km
New LineCode.PEC2_1/0_AL_TRXLPE_CIC nPhases=2 R1=0.602730 X1=0.161556 R0=1.609351 X0=0.882347 B1=45.142604 B0=0.000000 NormAmps=135.000000 Units=km
New LineCode.PEC2_1/0_AL_TRXLPE_D_B nPhases=2 R1=0.602730 X1=0.161556 R0=1.609351 X0=0.882347 B1=45.142604 B0=0.000000 NormAmps=135.000000 Units=km
New LineCode.PEC2_1/0_AL_TRXLPE_D_B_W_S nPhases=3 R1=0.602730 X1=0.161556 R0=1.609351 X0=0.882347 B1=45.142604 B0=0.000000 NormAmps=135.000000 Units=km
New LineCode.PEC2_1/0_AL_TRXLPE_I_C nPhases=2 R1=0.602730 X1=0.161556 R0=1.609351 X0=0.882347 B1=45.142603 B0=0.000000 NormAmps=135.000000 Units=km
New LineCode.PEC2_1/0_AL-J_TRXLPE_CIC nPhases=2 R1=0.602730 X1=0.161556 R0=1.609351 X0=0.882347 B1=45.142604 B0=0.000000 NormAmps=236.000000 Units=km
New LineCode.PEC2_1/0_AL-J_TRXLPE_D_B nPhases=2 R1=0.602730 X1=0.161556 R0=1.609351 X0=0.882347 B1=45.142604 B0=0.000000 NormAmps=236.000000 Units=km
New LineCode.PEC2_1/0_AL-J_TRXLPE_D_B_W_S nPhases=3 R1=0.602730 X1=0.161556 R0=1.609351 X0=0.882347 B1=45.142604 B0=0.000000 NormAmps=236.000000 Units=km
New LineCode.PEC2_1/0_AL-J_TRXLPE_I_C nPhases=2 R1=0.602730 X1=0.161556 R0=1.609351 X0=0.882347 B1=45.142603 B0=0.000000 NormAmps=236.000000 Units=km
New LineCode.PEC2_1/0_CU_TRXLPE_CIC nPhases=2 R1=0.316899 X1=0.515738 R0=0.161556 X0=0.105633 B1=42.967806 B0=0.000000 NormAmps=217.000000 Units=km
New LineCode.PEC2_1/0_CU_TRXLPE_D_B nPhases=2 R1=0.316899 X1=0.515738 R0=0.161556 X0=0.105633 B1=42.967806 B0=0.000000 NormAmps=217.000000 Units=km
New LineCode.PEC2_1/0_CU_TRXLPE_D_B_W_S nPhases=3 R1=0.316899 X1=0.515738 R0=0.161556 X0=0.105633 B1=42.967806 B0=0.000000 NormAmps=217.000000 Units=km
New LineCode.PEC2_1/0_CU_TRXLPE_I_C nPhases=2 R1=0.316899 X1=0.515738 R0=0.161556 X0=0.105633 B1=42.967805 B0=0.000000 NormAmps=217.000000 Units=km
New LineCode.PEC2_1000_AL_TRXLPE_CIC nPhases=2 R1=0.068351 X1=0.111847 R0=0.708363 X0=0.310686 B1=126.902600 B0=0.000000 NormAmps=625.000000 Units=km
New LineCode.PEC2_1000_AL_TRXLPE_D_B nPhases=2 R1=0.068351 X1=0.111847 R0=0.708363 X0=0.310686 B1=126.902600 B0=0.000000 NormAmps=625.000000 Units=km
New LineCode.PEC2_1000_AL_TRXLPE_D_B_W_S nPhases=3 R1=0.068351 X1=0.111847 R0=0.708363 X0=0.310686 B1=126.902600 B0=0.000000 NormAmps=625.000000 Units=km
New LineCode.PEC2_1000_AL_TRXLPE_I_C nPhases=2 R1=0.068351 X1=0.111847 R0=0.708363 X0=0.310686 B1=126.902600 B0=0.000000 NormAmps=625.000000 Units=km
New LineCode.PEC2_2/0_AL_TRXLPE_CIC nPhases=2 R1=0.335540 X1=0.111847 R0=0.565448 X0=0.099419 B1=1.516145 B0=0.000000 NormAmps=223.000000 Units=km
New LineCode.PEC2_2/0_AL_TRXLPE_D_B nPhases=2 R1=0.335540 X1=0.111847 R0=0.565448 X0=0.099419 B1=1.516145 B0=0.000000 NormAmps=223.000000 Units=km
New LineCode.PEC2_2/0_AL_TRXLPE_D_B_W_S nPhases=3 R1=0.335540 X1=0.111847 R0=0.565448 X0=0.099419 B1=1.516145 B0=0.000000 NormAmps=223.000000 Units=km
New LineCode.PEC2_2/0_AL_TRXLPE_I_C nPhases=2 R1=0.335540 X1=0.111847 R0=0.565448 X0=0.099419 B1=1.516145 B0=0.000000 NormAmps=223.000000 Units=km
New LineCode.PEC2_2/0_CU_TRXLPE_CIC nPhases=2 R1=0.205052 X1=0.938270 R0=0.093206 X0=0.888560 B1=58.651208 B0=0.000000 NormAmps=245.000000 Units=km
New LineCode.PEC2_2/0_CU_TRXLPE_D_B nPhases=2 R1=0.205052 X1=0.938270 R0=0.093206 X0=0.888560 B1=58.651208 B0=0.000000 NormAmps=245.000000 Units=km
New LineCode.PEC2_2/0_CU_TRXLPE_D_B_W_S nPhases=3 R1=0.205052 X1=0.938270 R0=0.093206 X0=0.888560 B1=58.651208 B0=0.000000 NormAmps=245.000000 Units=km
New LineCode.PEC2_2/0_CU_TRXLPE_I_C nPhases=2 R1=0.205052 X1=0.938270 R0=0.093206 X0=0.888561 B1=58.651209 B0=0.000000 NormAmps=245.000000 Units=km
New LineCode.PEC2_250_CU_TRXLPE_CIC nPhases=2 R1=0.093206 X1=0.254762 R0=0.273403 X0=0.770500 B1=2.466843 B0=0.000000 NormAmps=360.000000 Units=km
New LineCode.PEC2_250_CU_TRXLPE_D_B nPhases=2 R1=0.093206 X1=0.254762 R0=0.273403 X0=0.770500 B1=2.466843 B0=0.000000 NormAmps=360.000000 Units=km
New LineCode.PEC2_250_CU_TRXLPE_D_B_W_S nPhases=3 R1=0.093206 X1=0.254762 R0=0.273403 X0=0.770500 B1=2.466843 B0=0.000000 NormAmps=360.000000 Units=km
New LineCode.PEC2_250_CU_TRXLPE_I_C nPhases=2 R1=0.093206 X1=0.254762 R0=0.273403 X0=0.770500 B1=2.466843 B0=0.000000 NormAmps=360.000000 Units=km
...
