03_OpenDSS_Circuits/HollySprings_Circuit_Opendss/UGLines.DSS
New Line.18KQ20_186Q93_105985159 Bus1=103651947.3 Bus2=103527267.3 LineCode=PEC1_#1/0_AWG_AL_XLPE_JACKET_CN_ Phases= 1  Length=160.026096 units=m
New Line.8R717_8R719_2657823 Bus1=26991515.2 Bus2=26991512.2 LineCode=PEC1_#1/0_AWG_AL_XLPE_JACKET_CN_ Phases= 1  Length=67.970400 units=m
New Line.11E480_11E481_2667684 Bus1=103125599.2 Bus2=27136877.2 LineCode=PEC1_#1/0_AWG_AL_XLPE_JACKET_CN_ Phases= 1  Length=199.948800 units=m
New Line.BUS_103098782 Bus1=103048714.3 Bus2=103048715.3 LineCode=NONE Phases= 1  Length=0.000305 units=m
New Line.BUS_104712819 Bus1=103543472.1 Bus2=T4795B23_10000049.1 LineCode=NONE Phases= 1  Length=0.000305 units=m
New Line.15TN71_15TN72_103913787 Bus1=103265150.3 Bus2=103265149.3 LineCode=PEC1_#1/0_AWG_AL_XLPE_JACKET_CN_ Phases= 1  Length=124.358400 units=m
New Line.8EK66_8EK67_2662319 Bus1=27136728.1 Bus2=27136701.1 LineCode=PEC1_#1/0_AWG_AL_XLPE_JACKET_CN_ Phases= 1  Length=107.899200 units=m
New Line.BUS_103388664 Bus1=103121474.1.2.3 Bus2=103121475.1.2.3 LineCode=NONE Phases= 3  Length=0.000305 units=m
New Line.G9L65_17Q665_2681054 Bus1=103041881.2 Bus2=103413875.2 LineCode=PEC1_#1/0_AWG_AL_XLPE_JACKET_CN_ Phases= 1  Length=405.868632 units=m
New Line.184Q68_183Y93_104712795 Bus1=103543441.1 Bus2=103543459.1 LineCode=PEC1_#1/0_AWG_AL_XLPE_JACKET_CN_ Phases= 1  Length=48.768000 units=m
New Line.D118K_D117K_2626987 Bus1=27136777.1 Bus2=27136765.1 LineCode=PEC1_#1/0_AWG_AL_XLPE_JACKET_CN_ Phases= 1  Length=115.824000 units=m
New Line.D106K_12128_2626989 Bus1=27136666.3 Bus2=27136663.3 LineCode=PEC1_#1/0_AWG_AL_XLPE_JACKET_CN_ Phases= 1  Length=80.467200 units=m
New Line.132351_132352_2675025 Bus1=26999465.2 Bus2=26999474.2 LineCode=PEC1_#1/0_AWG_AL_XLPE_JACKET_CN_ Phases= 1  Length=125.577600 units=m
New Line.9AM82_D883K_2659664 Bus1=25631624.2 Bus2=26999871.2 LineCode=PEC1_#1/0_AWG_AL_XLPE_JACKET_CN_ Phases= 1  Length=402.336000 units=m
New Line.A984BH_86093_2656902 Bus1=25429365.1 Bus2=27135962.1 LineCode=PEC1_#1/0_AWG_AL_XLPE_JACKET_CN_ Phases= 1  Length=232.257600 units=m
New Line.13PX76_13PX77_2676794 Bus1=27000196.2 Bus2=27000199.2 LineCode=PEC1_#1/0_AWG_AL_XLPE_JACKET_CN_ Phases= 1  Length=26.517600 units=m
New Line.7228K_9AM77_2659652 Bus1=25631627.1 Bus2=26999873.1 LineCode=PEC1_#1/0_AWG_AL_XLPE_JACKET_CN_ Phases= 1  Length=362.407200 units=m
New Line.13PX85_7231K_2676812 Bus1=26709862.1 Bus2=27000178.1 LineCode=PEC1_#1/0_AWG_AL_XLPE_JACKET_CN_ Phases= 1  Length=260.604000 units=m
New Line.BUS_103098768 Bus1=103048712.2 Bus2=103048711.2 LineCode=NONE Phases= 1  Length=0.000305 units=m
New Line.18GC39_18GC40_105326041 Bus1=103626617.2 Bus2=103626615.2 LineCode=PEC1_#1/0_AWG_AL_XLPE_JACKET_CN_ Phases= 1  Length=118.262400 units=m
New Line.7RE77_7TX21_2656196 Bus1=25360359.3 Bus2=27136932.3 LineCode=PEC1_#1/0_AWG_AL_XLPE_JACKET_CN_ Phases= 1  Length=120.396000 units=m
New Line.6TE34_6TE39_2655975 Bus1=27136887.1 Bus2=27136890.1 LineCode=PEC1_#1/0_AWG_AL_XLPE_JACKET_CN_ Phases= 1  Length=269.748000 units=m
New Line.119P96_13XH06_2677732 Bus1=26999477.1 Bus2=26755991.1 LineCode=PEC1_#1/0_AWG_AL_XLPE_JACKET_CN_ Phases= 1  Length=2.438400 units=m
New Line.85373_13F675_2657449 Bus1=103121256.2 Bus2=27137027.2 LineCode=PEC1_#1/0_AWG_AL_XLPE_JACKET_CN_ Phases= 1  Length=164.592000 units=m
New Line.14FX05_14FX04_2679999 Bus1=27136524.1 Bus2=27136494.1 LineCode=PEC1_#1/0_AWG_AL_XLPE_JACKET_CN_ Phases= 1  Length=93.268800 units=m
New Line.134088_133Y84_2676509 Bus1=103121503.3 Bus2=27136946.3 LineCode=PEC1_#1/0_AWG_AL_XLPE_JACKET_CN_ Phases= 1  Length=6.705600 units=m
New Line.9WA93_116C33_2663184 Bus1=27136721.1 Bus2=27137278.1 LineCode=PEC1_#1/0_AWG_AL_XLPE_JACKET_CN_ Phases= 1  Length=101.803200 units=m
New Line.U570BH_A536BH_2628380 Bus1=1140122.3 Bus2=26999161.3 LineCode=PEC1_#1/0_AWG_AL_EPR_CN_D_B Phases= 1  Length=99.364800 units=m
New Line.183Y90_183Y09_104696276 Bus1=103537136.2 Bus2=103536814.2 LineCode=PEC1_#1/0_AWG_AL_XLPE_JACKET_CN_ Phases= 1  Length=24.469344 units=m
New Line.13PX97_13PX90_2676776 Bus1=27000186.3 Bus2=27000189.3 LineCode=PEC1_#1/0_AWG_AL_XLPE_JACKET_CN_ Phases= 1  Length=47.244000 units=m
New Line.84Q26_7NX60_2656157 Bus1=26999354.3 Bus2=26999350.3 LineCode=PEC1_#1/0_AWG_AL_XLPE_JACKET_CN_ Phases= 1  Length=300.837600 units=m
New Line.18KQ21_183907_105985151 Bus1=103651945.2 Bus2=103529698.2 LineCode=PEC1_#1/0_AWG_AL_XLPE_JACKET_CN_ Phases= 1  Length=8.705088 units=m
New Line.BUS_103041238 Bus1=103016792.1.2.3 Bus2=103016797.1.2.3 LineCode=NONE Phases= 3  Length=0.000305 units=m
New Line.13PX78_13PX80_2676800 Bus1=27000202.2 Bus2=27000205.2 LineCode=PEC1_#1/0_AWG_AL_XLPE_JACKET_CN_ Phases= 1  Length=144.170400 units=m
New Line.BUS_103041237 Bus1=103016794.1.2.3 Bus2=103294963.1.2.3 LineCode=NONE Phases= 3  Length=0.000305 units=m
New Line.BUS_103041236 Bus1=103016794.1.2.3 Bus2=103294961.1.2.3 LineCode=NONE Phases= 3  Length=0.000305 units=m
New Line.BUS_103041235 Bus1=103016793.1.2.3 Bus2=103016792.1.2.3 LineCode=NONE Phases= 3  Length=0.000305 units=m
New Line.13PX80_13PX81_2676802 Bus1=27000112.1 Bus2=27000204.1 LineCode=PEC1_#1/0_AWG_AL_XLPE_JACKET_CN_ Phases= 1  Length=56.083200 units=m
New Line.BUS_2707110 Bus1=27146931.1.2.3 Bus2=27146927.1.2.3 LineCode=NONE Phases= 3  Length=0.000305 units=m
New Line.106797_106795_2662456 Bus1=27136875.2 Bus2=27136871.2 LineCode=PEC1_#1/0_AWG_AL_XLPE_JACKET_CN_ Phases= 1  Length=46.634400 units=m
New Line.13L570_13L571_2676125 Bus1=27137075.1 Bus2=27137078.1 LineCode=PEC1_#1/0_AWG_AL_XLPE_JACKET_CN_ Phases= 1  Length=142.036800 units=m
New Line.133Y83_133Y82_2674184 Bus1=27136948.3 Bus2=27136951.3 LineCode=PEC1_#1/0_AWG_AL_XLPE_JACKET_CN_ Phases= 1  Length=59.740800 units=m
New Line.18KP61_18KQ21_105820251 Bus1=103645571.2 Bus2=103651945.2 LineCode=PEC1_#1/0_AWG_AL_XLPE_JACKET_CN_ Phases= 1  Length=70.408800 units=m
New Line.15TN75_17CA01_103913826 Bus1=103297397.3 Bus2=103265168.3 LineCode=PEC1_#1/0_AWG_AL_XLPE_JACKET_CN_ Phases= 1  Length=171.145200 units=m
New Line.7TX18_7WL56_2656205 Bus1=27136908.3 Bus2=103125604.3 LineCode=PEC1_#1/0_AWG_AL_XLPE_JACKET_CN_ Phases= 1  Length=141.427200 units=m
New Line.5DP92_5DP93_2664342 Bus1=26999484.2 Bus2=26999491.2 LineCode=PEC1_#1/0_AWG_AL_XLPE_JACKET_CN_ Phases= 1  Length=228.295200 units=m
New Line.144379_144378_2678083 Bus1=27137090.1 Bus2=27137096.1 LineCode=PEC1_#1/0_AWG_AL_XLPE_JACKET_CN_ Phases= 1  Length=462.381600 units=m
New Line.17KH64_17KH65_104218257 Bus1=103359455.2 Bus2=103359055.2 LineCode=PEC1_#1/0_AWG_AL_XLPE_JACKET_CN_ Phases= 1  Length=48.463200 units=m
New Line.BUS_105436413 Bus1=103631333.2 Bus2=103631332.2 LineCode=NONE Phases= 1  Length=0.000305 units=m
New Line.A649K_12122_2626929 Bus1=27136651.3 Bus2=27136656.3 LineCode=PEC1_#2_AWG_AL_XLPE_JACKET_CN_D_ Phases= 1  Length=161.239200 units=m
New Line.6TE39_6TE35_2655976 Bus1=27136889.1 Bus2=27136895.1 LineCode=PEC1_#1/0_AWG_AL_XLPE_JACKET_CN_ Phases= 1  Length=155.143200 units=m
New Line.9WA92_116C33_2663183 Bus1=27137264.1 Bus2=27136720.1 LineCode=PEC1_#1/0_AWG_AL_XLPE_JACKET_CN_ Phases= 1  Length=307.848000 units=m
New Line.D862K_12132_2628376 Bus1=26999233.3 Bus2=27136637.3 LineCode=PEC1_#1/0_AWG_AL_XLPE_JACKET_CN_ Phases= 1  Length=210.312000 units=m
New Line.18PH79_18PH81_104696340 Bus1=103537162.1 Bus2=103537163.1 LineCode=PEC1_#1/0_AWG_AL_XLPE_JACKET_CN_ Phases= 1  Length=50.596800 units=m
New Line.9AM84_D883K_2659651 Bus1=25631622.3 Bus2=26999859.3 LineCode=PEC1_#1/0_AWG_AL_XLPE_JACKET_CN_ Phases= 1  Length=165.811200 units=m
New Line.7350K_18FA94_105436426 Bus1=1104735.2 Bus2=103631344.2 LineCode=PEC1_#1/0_AWG_AL_XLPE_JACKET_CN_ Phases= 1  Length=225.384360 units=m
New Line.7NX29_7NX10_2654660 Bus1=26999348.3 Bus2=103079725.3 LineCode=PEC1_#1/0_AWG_AL_XLPE_JACKET_CN_ Phases= 1  Length=89.611200 units=m
New Line.13L574_13L575_2676129 Bus1=27137072.1 Bus2=27137083.1 LineCode=PEC1_#1/0_AWG_AL_XLPE_JACKET_CN_ Phases= 1  Length=153.619200 units=m
New Line.13PX91_13PX92_2676780 Bus1=27000169.3 Bus2=27000166.3 LineCode=PEC1_#1/0_AWG_AL_XLPE_JACKET_CN_ Phases= 1  Length=67.665600 units=m
New Line.13PX89_13PX96_2676769 Bus1=27000182.3 Bus2=27000185.3 LineCode=PEC1_#1/0_AWG_AL_XLPE_JACKET_CN_ Phases= 1  Length=46.634400 units=m
New Line.14T643_14DW88_103076978 Bus1=26859784.1 Bus2=103048756.1 LineCode=PEC1_#1/0_AWG_AL_XLPE_JACKET_CN_ Phases= 1  Length=70.085712 units=m
New Line.5LT91_A543BH_2628379 Bus1=26999169.3 Bus2=26999207.3 LineCode=PEC1_#1/0_AWG_AL_XLPE_JACKET_CN_ Phases= 1  Length=64.922400 units=m
New Line.17BR89_17BR90_104028965 Bus1=103294683.1 Bus2=103294689.1 LineCode=PEC1_#1/0_AWG_AL_XLPE_JACKET_CN_ Phases= 1  Length=302.971200 units=m
New Line.7NX16_7NX73_2655322 Bus1=26999268.2 Bus2=26999270.2 LineCode=PEC1_#1/0_AWG_AL_XLPE_JACKET_CN_ Phases= 1  Length=231.343200 units=m
New Line.D884K_13PX87_2676759 Bus1=26709736.3 Bus2=27000190.3 LineCode=PEC1_#1/0_AWG_AL_XLPE_JACKET_CN_ Phases= 1  Length=87.477600 units=m
New Line.D113K_D112K_2626978 Bus1=27136678.3 Bus2=27136675.3 LineCode=PEC1_#1/0_AWG_AL_XLPE_JACKET_CN_ Phases= 1  Length=96.621600 units=m
New Line.G257K_G256K_2627023 Bus1=27136688.3 Bus2=27136691.3 LineCode=PEC1_#1/0_AWG_AL_XLPE_JACKET_CN_ Phases= 1  Length=409.956000 units=m
New Line.186Q95_18LW04_104672512 Bus1=103651943.1 Bus2=103527273.1 LineCode=PEC1_#1/0_AWG_AL_XLPE_JACKET_CN_ Phases= 1  Length=341.683848 units=m
New Line.6TE37_7MX01_2655997 Bus1=27136905.1 Bus2=27136894.1 LineCode=PEC1_#1/0_AWG_AL_XLPE_JACKET_CN_ Phases= 1  Length=126.796800 units=m
New Line.7BD66_5DP98_2654334 Bus1=26999493.2 Bus2=26999502.2 LineCode=PEC1_#1/0_AWG_AL_XLPE_JACKET_CN_ Phases= 1  Length=173.736000 units=m
New Line.14G318_14L467_2680581 Bus1=103125252.2 Bus2=27136522.2 LineCode=PEC1_#1/0_AWG_AL_XLPE_JACKET_CN_ Phases= 1  Length=119.569992 units=m
New Line.132352_132353_2673897 Bus1=26999475.2 Bus2=26999472.2 LineCode=PEC1_#1/0_AWG_AL_XLPE_JACKET_CN_ Phases= 1  Length=82.905600 units=m
New Line.U586BH_U595BH_2628345 Bus1=26999340.1 Bus2=26999336.1 LineCode=PEC1_#1/0_AWG_AL_XLPE_JACKET_CN_ Phases= 1  Length=290.169600 units=m
New Line.U879BH_11PR92_2669627 Bus1=26303558.1 Bus2=27136831.1 LineCode=PEC1_#1/0_AWG_AL_XLPE_JACKET_CN_ Phases= 1  Length=155.448000 units=m
New Line.18PH81_18PH80_104696343 Bus1=103537165.1 Bus2=103537166.1 LineCode=PEC1_#1/0_AWG_AL_XLPE_JACKET_CN_ Phases= 1  Length=19.812000 units=m
New Line.17KH68_17KH69_104218253 Bus1=103359068.1 Bus2=103359059.1 LineCode=PEC1_#1/0_AWG_AL_XLPE_JACKET_CN_ Phases= 1  Length=109.423200 units=m
New Line.17DH82_17DH83_104079496 Bus1=103321744.1 Bus2=103307204.1 LineCode=PEC1_#1/0_AWG_AL_XLPE_JACKET_CN_ Phases= 1  Length=157.276800 units=m
New Line.18GC32_18GC33_105326037 Bus1=103626595.2 Bus2=103626605.2 LineCode=PEC1_#1/0_AWG_AL_XLPE_JACKET_CN_ Phases= 1  Length=127.711200 units=m
New Line.132354_132355_2673901 Bus1=26999446.2 Bus2=26999458.2 LineCode=PEC1_#1/0_AWG_AL_XLPE_JACKET_CN_ Phases= 1  Length=61.264800 units=m
New Line.8DT92_8DW53_2657076 Bus1=26999514.2 Bus2=103079711.2 LineCode=PEC1_#1/0_AWG_AL_XLPE_JACKET_CN_ Phases= 1  Length=53.340000 units=m
New Line.G2401_G2402_2628387 Bus1=26999408.3 Bus2=26999177.3 LineCode=PEC1_#1/0_AWG_AL_XLPE_JACKET_CN_ Phases= 1  Length=101.498400 units=m
New Line.14L469_14L470_2680584 Bus1=27136584.2 Bus2=27136581.2 LineCode=PEC1_#1/0_AWG_AL_XLPE_JACKET_CN_ Phases= 1  Length=65.836800 units=m
New Line.D102K_D104K_2627020 Bus1=27136769.1 Bus2=27136766.1 LineCode=PEC1_#1/0_AWG_AL_XLPE_JACKET_CN_ Phases= 1  Length=128.320800 units=m
New Line.11E479_11E480_2667682 Bus1=103125594.2 Bus2=27136870.2 LineCode=PEC1_#1/0_AWG_AL_XLPE_JACKET_CN_ Phases= 1  Length=320.649600 units=m
New Line.8DT82_8DT97_2657065 Bus1=26999713.3 Bus2=27000214.3 LineCode=PEC1_#1/0_AWG_AL_XLPE_JACKET_CN_ Phases= 1  Length=39.014400 units=m
New Line.18GC36_18GC37_105326035 Bus1=103626597.2 Bus2=103626591.2 LineCode=PEC1_#1/0_AWG_AL_XLPE_JACKET_CN_ Phases= 1  Length=271.881600 units=m
New Line.D116K_D117K_2626986 Bus1=27136779.1 Bus2=27136776.1 LineCode=PEC1_#1/0_AWG_AL_XLPE_JACKET_CN_ Phases= 1  Length=131.064000 units=m
New Line.7X078_7X079_2656201 Bus1=27136944.3 Bus2=27136941.3 LineCode=PEC1_#1/0_AWG_AL_XLPE_JACKET_CN_ Phases= 1  Length=75.590400 units=m
New Line.U572K_ABE44K_2628369 Bus1=1105109.3 Bus2=26999387.3 LineCode=PEC1_#1/0_AWG_AL_XLPE_JACKET_CN_ Phases= 1  Length=81.076800 units=m
New Line.U600BH_2YV80_2628349 Bus1=26999144.1 Bus2=26999335.1 LineCode=PEC1_#1/0_AWG_AL_XLPE_JACKET_CN_ Phases= 1  Length=142.646400 units=m
New Line.7TX21_7X080_2656198 Bus1=27136939.3 Bus2=27136933.3 LineCode=PEC1_#1/0_AWG_AL_XLPE_JACKET_CN_ Phases= 1  Length=225.856800 units=m
New Line.6TE35_6TE36_2655977 Bus1=27136896.1 Bus2=27136891.1 LineCode=PEC1_#1/0_AWG_AL_XLPE_JACKET_CN_ Phases= 1  Length=90.525600 units=m
New Line.18PJ29_184Q58_106403424 Bus1=103672955.1 Bus2=103543473.1 LineCode=PEC1_#1/0_AWG_AL_XLPE_JACKET_CN_ Phases= 1  Length=6.815328 units=m
New Line.14L343_14L344_2680569 Bus1=27136567.2 Bus2=27136564.2 LineCode=PEC1_#1/0_AWG_AL_XLPE_JACKET_CN_ Phases= 1  Length=98.755200 units=m
New Line.17MN21_17MN22_104282571 Bus1=103383295.3 Bus2=103383281.3 LineCode=PEC1_#1/0_AWG_AL_XLPE_JACKET_CN_ Phases= 1  Length=81.381600 units=m
New Line.BUS_104029640 Bus1=103294836.1.2.3 Bus2=103294834.1.2.3 LineCode=NONE Phases= 3  Length=0.000305 units=m
New Line.PME14_NV06_2650270 Bus1=26999194.3 Bus2=26999191.3 LineCode=PEC1_#1/0_AWG_AL_XLPE_JACKET_CN_ Phases= 1  Length=227.380800 units=m
New Line.9AM89_9AM90_2659656 Bus1=26999864.1 Bus2=26999861.1 LineCode=PEC1_#1/0_AWG_AL_XLPE_JACKET_CN_ Phases= 1  Length=61.264800 units=m
New Line.BUS_104508462 Bus1=103462490.1 Bus2=103462488.1 LineCode=NONE Phases= 1  Length=0.000305 units=m
New Line.126696_126697_2670648 Bus1=26999928.1 Bus2=26999931.1 LineCode=PEC1_#1/0_AWG_AL_XLPE_JACKET_CN_ Phases= 1  Length=118.567200 units=m
New Line.BUS_104508464 Bus1=103462491.1 Bus2=103462489.1 LineCode=NONE Phases= 1  Length=0.000305 units=m
New Line.G2635_G2636_2650273 Bus1=26999204.3 Bus2=26999197.3 LineCode=PEC1_#1/0_AWG_AL_XLPE_JACKET_CN_ Phases= 1  Length=70.104000 units=m
New Line.14Q054_14Q055_103041330 Bus1=103016838.2 Bus2=103016839.2 LineCode=PEC1_#1/0_AWG_AL_XLPE_JACKET_CN_ Phases= 1  Length=122.834400 units=m
New Line.G258K_G257K_2626995 Bus1=27136690.3 Bus2=27136693.3 LineCode=PEC1_#1/0_AWG_AL_XLPE_JACKET_CN_ Phases= 1  Length=67.056000 units=m
New Line.9AM83_D883K_2659658 Bus1=25631623.1 Bus2=26999865.1 LineCode=PEC1_#1/0_AWG_AL_XLPE_JACKET_CN_ Phases= 1  Length=258.470400 units=m
New Line.8DT93_8DT94_2657071 Bus1=26999512.2 Bus2=26999508.2 LineCode=PEC1_#1/0_AWG_AL_XLPE_JACKET_CN_ Phases= 1  Length=99.974400 units=m
New Line.14LJ02_14LJ03_2680794 Bus1=27137109.1 Bus2=27137106.1 LineCode=PEC1_#1/0_AWG_AL_XLPE_JACKET_CN_ Phases= 1  Length=80.162400 units=m
New Line.183Y09_183Y10_104695364 Bus1=103536820.2 Bus2=103536822.2 LineCode=PEC1_#1/0_AWG_AL_XLPE_JACKET_CN_ Phases= 1  Length=199.034400 units=m
New Line.7NX11_7NX10_2664931 Bus1=26999400.3 Bus2=26999395.3 LineCode=PEC1_#1/0_AWG_AL_XLPE_JACKET_CN_ Phases= 1  Length=20.116800 units=m
New Line.102L15_102L16_2661142 Bus1=27136918.2 Bus2=27136921.2 LineCode=PEC1_#1/0_AWG_AL_XLPE_JACKET_CN_ Phases= 1  Length=81.381600 units=m
New Line.7WL57_7WL54_2656207 Bus1=27136911.3 Bus2=27136906.3 LineCode=PEC1_#1/0_AWG_AL_XLPE_JACKET_CN_ Phases= 1  Length=97.536000 units=m
New Line.6TE36_6TE40_2655978 Bus1=27136892.1 Bus2=27136898.1 LineCode=PEC1_#1/0_AWG_AL_XLPE_JACKET_CN_ Phases= 1  Length=82.600800 units=m
New Line.9WF47_9WF48_2663243 Bus1=27136700.3 Bus2=27136762.3 LineCode=PEC1_#1/0_AWG_AL_XLPE_JACKET_CN_ Phases= 1  Length=239.877600 units=m
New Line.13WA55_144381_2678077 Bus1=26776441.1 Bus2=27137093.1 LineCode=PEC1_#1/0_AWG_AL_XLPE_JACKET_CN_ Phases= 1  Length=119.786400 units=m
New Line.8DT89_8DT97_103222721 Bus1=103079643.2 Bus2=103079646.2 LineCode=PEC1_#1/0_AWG_AL_XLPE_JACKET_CN_ Phases= 1  Length=680.786040 units=m
New Line.17Q659_17Q660_104378562 Bus1=103413071.2 Bus2=103413070.2 LineCode=PEC1_#1/0_AWG_AL_XLPE_JACKET_CN_ Phases= 1  Length=122.834400 units=m
New Line.14L345_14L346_2680571 Bus1=27136568.2 Bus2=27136570.2 LineCode=PEC1_#1/0_AWG_AL_XLPE_JACKET_CN_ Phases= 1  Length=118.262400 units=m
New Line.132363_132362_2673928 Bus1=26999444.1 Bus2=26999441.1 LineCode=PEC1_#1/0_AWG_AL_XLPE_JACKET_CN_ Phases= 1  Length=70.713600 units=m
New Line.18GC40_18FA93_105326042 Bus1=103631340.2 Bus2=103626619.2 LineCode=PEC1_#1/0_AWG_AL_XLPE_JACKET_CN_ Phases= 1  Length=130.149600 units=m
New Line.D884K_13PX74_2676760 Bus1=26709737.2 Bus2=27000192.2 LineCode=PEC1_#1/0_AWG_AL_XLPE_JACKET_CN_ Phases= 1  Length=128.625600 units=m
New Line.12AK65_12AK64_2671224 Bus1=27136806.2 Bus2=27136838.2 LineCode=PEC1_#1/0_AWG_AL_XLPE_JACKET_CN_ Phases= 1  Length=178.612800 units=m
New Line.CBN14_CBN16_2626962 Bus1=27136709.3 Bus2=27136706.3 LineCode=PEC1_#1/0_AWG_AL_XLPE_JACKET_CN_ Phases= 1  Length=325.831200 units=m
New Line.ND80BH_13L569_2676123 Bus1=26801549.1 Bus2=27137074.1 LineCode=PEC1_#1/0_AWG_AL_XLPE_JACKET_CN_ Phases= 1  Length=191.414400 units=m
New Line.14G317_14L810_2680021 Bus1=103089685.2 Bus2=103048713.2 LineCode=PEC1_#1/0_AWG_AL_XLPE_JACKET_CN_ Phases= 1  Length=168.249600 units=m
New Line.BUS_104679566 Bus1=103529699.3 Bus2=T4795B23_10000048.3 LineCode=NONE Phases= 1  Length=0.000305 units=m
New Line.BUS_104679565 Bus1=103529698.2 Bus2=T4795B23_10000047.2 LineCode=NONE Phases= 1  Length=0.000305 units=m
New Line.7WL58_7MX01_2656219 Bus1=27136912.1 Bus2=27136904.1 LineCode=PEC1_#1/0_AWG_AL_XLPE_JACKET_CN_ Phases= 1  Length=121.920000 units=m
New Line.BUS_104679563 Bus1=103529696.1 Bus2=T4795B23_10000046.1 LineCode=NONE Phases= 1  Length=0.000305 units=m
New Line.14G318_14L472_103098812 Bus1=27136585.3 Bus2=103125253.3 LineCode=PEC1_#1/0_AWG_AL_XLPE_JACKET_CN_ Phases= 1  Length=461.546448 units=m
New Line.132365_132364_2673919 Bus1=26999449.1 Bus2=26999463.1 LineCode=PEC1_#1/0_AWG_AL_XLPE_JACKET_CN_ Phases= 1  Length=76.809600 units=m
New Line.17BR90_14Q049_104028962 Bus1=103294677.1 Bus2=103294685.1 LineCode=PEC1_#1/0_AWG_AL_XLPE_JACKET_CN_ Phases= 1  Length=60.655200 units=m
New Line.D860K_RFJ75_2628371 Bus1=26999389.3 Bus2=26999392.3 LineCode=PEC1_#1/0_AWG_AL_XLPE_JACKET_CN_ Phases= 1  Length=70.713600 units=m
New Line.8DR41_8DR47_2657049 Bus1=26999384.1 Bus2=26999379.1 LineCode=PEC1_#1/0_AWG_AL_XLPE_JACKET_CN_ Phases= 1  Length=121.310400 units=m
New Line.7351K_158E26_103192172 Bus1=103079630.2 Bus2=103072060.2 LineCode=PEC1_#1/0_AWG_AL_XLPE_JACKET_CN_ Phases= 1  Length=39.395400 units=m
New Line.D104K_D118K_2627021 Bus1=27136767.1 Bus2=27136764.1 LineCode=PEC1_#1/0_AWG_AL_XLPE_JACKET_CN_ Phases= 1  Length=365.455200 units=m
New Line.132358_132359_2673909 Bus1=26999456.2 Bus2=26999453.2 LineCode=PEC1_#1/0_AWG_AL_XLPE_JACKET_CN_ Phases= 1  Length=60.655200 units=m
New Line.132361_132365_2673917 Bus1=26999448.1 Bus2=26999450.1 LineCode=PEC1_#1/0_AWG_AL_XLPE_JACKET_CN_ Phases= 1  Length=210.616800 units=m
New Line.15QR57_15QR58_103849407 Bus1=103249215.1 Bus2=103249214.1 LineCode=PEC1_#1/0_AWG_AL_XLPE_JACKET_CN_ Phases= 1  Length=108.630720 units=m
New Line.8DT89_8DT90_2657069 Bus1=26999367.2 Bus2=26999346.2 LineCode=PEC1_#1/0_AWG_AL_XLPE_JACKET_CN_ Phases= 1  Length=162.763200 units=m
New Line.8EK62_126695_2670644 Bus1=26999374.1 Bus2=26999927.1 LineCode=PEC1_#1/0_AWG_AL_XLPE_JACKET_CN_ Phases= 1  Length=182.880000 units=m
New Line.14DW88_14G317_2680020 Bus1=103036414.1.2.3 Bus2=103036415.1.2.3 LineCode=PEC3_750KCMIL_AL_XLPE_LC_SHIELD_ Phases= 3  Length=531.876000 units=m
New Line.8DT95_8DT96_2657073 Bus1=26999507.2 Bus2=26999505.2 LineCode=PEC1_#1/0_AWG_AL_XLPE_JACKET_CN_ Phases= 1  Length=84.734400 units=m
New Line.183Y93_183Y92_104696416 Bus1=103537208.1 Bus2=103537209.1 LineCode=PEC1_#1/0_AWG_AL_XLPE_JACKET_CN_ Phases= 1  Length=15.544800 units=m
New Line.17BT62_17BT58_104029711 Bus1=103294850.1 Bus2=103294847.1 LineCode=PEC1_#1/0_AWG_AL_XLPE_JACKET_CN_ Phases= 1  Length=9.144000 units=m
New Line.188E98_187W44_104783621 Bus1=103571154.1 Bus2=103571149.1 LineCode=PEC1_#1/0_AWG_AL_XLPE_JACKET_CN_ Phases= 1  Length=118.872000 units=m
New Line.106800_106799_2662451 Bus1=27136854.2 Bus2=27136849.2 LineCode=PEC1_#1/0_AWG_AL_XLPE_JACKET_CN_ Phases= 1  Length=212.445600 units=m
New Line.5DP95_5DP93_2652221 Bus1=26999492.2 Bus2=26999489.2 LineCode=PEC1_#1/0_AWG_AL_XLPE_JACKET_CN_ Phases= 1  Length=112.776000 units=m
New Line.9AM78_9AM79_2659660 Bus1=26999856.2 Bus2=26999853.2 LineCode=PEC1_#1/0_AWG_AL_XLPE_JACKET_CN_ Phases= 1  Length=55.168800 units=m
New Line.17MN22_15TN76_104282572 Bus1=103383283.3 Bus2=103384998.3 LineCode=PEC1_#1/0_AWG_AL_XLPE_JACKET_CN_ Phases= 1  Length=78.943200 units=m
New Line.13PX77_13PX79_2676796 Bus1=27000198.2 Bus2=27000201.2 LineCode=PEC1_#1/0_AWG_AL_XLPE_JACKET_CN_ Phases= 1  Length=205.740000 units=m
New Line.9AM80_9AM81_2659662 Bus1=26999870.2 Bus2=26999867.2 LineCode=PEC1_#1/0_AWG_AL_XLPE_JACKET_CN_ Phases= 1  Length=146.304000 units=m
New Line.15QR56_15QR57_103849399 Bus1=103249211.1 Bus2=103249210.1 LineCode=PEC1_#1/0_AWG_AL_XLPE_JACKET_CN_ Phases= 1  Length=102.604824 units=m
New Line.8DT86_8DT87_2657067 Bus1=26999272.3 Bus2=26999295.3 LineCode=PEC1_#1/0_AWG_AL_XLPE_JACKET_CN_ Phases= 1  Length=100.584000 units=m
New Line.7NX29_7NX60_2655323 Bus1=26999351.3 Bus2=26999349.3 LineCode=PEC1_#1/0_AWG_AL_XLPE_JACKET_CN_ Phases= 1  Length=103.936800 units=m
New Line.8DR30_8DR36_2657903 Bus1=26999369.1 Bus2=26999371.1 LineCode=PEC1_#1/0_AWG_AL_XLPE_JACKET_CN_ Phases= 1  Length=118.872000 units=m
New Line.183Y07_183Y08_104695346 Bus1=103536805.2 Bus2=103536806.2 LineCode=PEC1_#1/0_AWG_AL_XLPE_JACKET_CN_ Phases= 1  Length=96.316800 units=m
New Line.14FX06_14FX05_2679998 Bus1=27136493.1 Bus2=27136496.1 LineCode=PEC1_#1/0_AWG_AL_XLPE_JACKET_CN_ Phases= 1  Length=146.913600 units=m
New Line.8DT92_8DT91_2657075 Bus1=26999516.2 Bus2=26999513.2 LineCode=PEC1_#1/0_AWG_AL_XLPE_JACKET_CN_ Phases= 1  Length=114.909600 units=m
New Line.13L576_ND80BH_2676131 Bus1=26801550.1 Bus2=27137085.1 LineCode=PEC1_#1/0_AWG_AL_XLPE_JACKET_CN_ Phases= 1  Length=210.616800 units=m
New Line.15QR55_15QR56_103849384 Bus1=103249208.1 Bus2=103249207.1 LineCode=PEC1_#1/0_AWG_AL_XLPE_JACKET_CN_ Phases= 1  Length=93.396816 units=m
New Line.18PH82_18PH79_104696337 Bus1=103537160.1 Bus2=103537161.1 LineCode=PEC1_#1/0_AWG_AL_XLPE_JACKET_CN_ Phases= 1  Length=52.730400 units=m
New Line.11E481_11E482_2667686 Bus1=103125601.2 Bus2=27136876.2 LineCode=PEC1_#1/0_AWG_AL_XLPE_JACKET_CN_ Phases= 1  Length=300.837600 units=m
New Line.11E483_11E484_2667690 Bus1=27136865.2 Bus2=27136868.2 LineCode=PEC1_#1/0_AWG_AL_XLPE_JACKET_CN_ Phases= 1  Length=85.039200 units=m
New Line.G260K_G259K_2627022 Bus1=27136694.3 Bus2=27136697.3 LineCode=PEC1_#1/0_AWG_AL_XLPE_JACKET_CN_ Phases= 1  Length=365.760000 units=m
New Line.PBB37_NV02BH_2628358 Bus1=26999148.1 Bus2=26999201.1 LineCode=PEC1_#1/0_AWG_AL_XLPE_JACKET_CN_ Phases= 1  Length=179.832000 units=m
New Line.12118_D102K_2627019 Bus1=25734597.3 Bus2=27136659.3 LineCode=PEC1_#1/0_AWG_AL_XLPE_JACKET_CN_ Phases= 1  Length=438.607200 units=m
New Line.5DP98_5DP97_2652214 Bus1=26999486.2 Bus2=26999495.2 LineCode=PEC1_#1/0_AWG_AL_XLPE_JACKET_CN_ Phases= 1  Length=175.260000 units=m
New Line.8DT87_8DT88_2657068 Bus1=26999294.3 Bus2=26999364.3 LineCode=PEC1_#1/0_AWG_AL_XLPE_JACKET_CN_ Phases= 1  Length=70.408800 units=m
New Line.134088_13F675_103387933 Bus1=103121504.1 Bus2=103121242.1 LineCode=PEC1_#1/0_AWG_AL_XLPE_JACKET_CN_ Phases= 1  Length=45.153072 units=m
New Line.15R054_14L463_103849283 Bus1=103249174.1 Bus2=103400446.1 LineCode=PEC1_#1/0_AWG_AL_XLPE_JACKET_CN_ Phases= 1  Length=5.519928 units=m
New Line.8DT83_8DT82_2657064 Bus1=26999712.3 Bus2=26999714.3 LineCode=PEC1_#1/0_AWG_AL_XLPE_JACKET_CN_ Phases= 1  Length=100.584000 units=m
New Line.A538BH_A541BH_2628378 Bus1=26999165.3 Bus2=26999168.3 LineCode=PEC1_#1/0_AWG_AL_EPR_CN_D_B Phases= 1  Length=155.448000 units=m
New Line.132415_132364_2675022 Bus1=26999438.1 Bus2=26999462.1 LineCode=PEC1_#1/0_AWG_AL_XLPE_JACKET_CN_ Phases= 1  Length=113.995200 units=m
New Line.13PX90_13PX91_2676778 Bus1=27000167.3 Bus2=27000188.3 LineCode=PEC1_#1/0_AWG_AL_XLPE_JACKET_CN_ Phases= 1  Length=59.740800 units=m
New Line.144380_144379_2678081 Bus1=27137098.1 Bus2=27137095.1 LineCode=PEC1_#1/0_AWG_AL_XLPE_JACKET_CN_ Phases= 1  Length=89.916000 units=m
New Line.7375K_8Q064_2659305 Bus1=25734523.3 Bus2=26999358.3 LineCode=PEC1_#1/0_AWG_AL_XLPE_JACKET_CN_ Phases= 1  Length=157.276800 units=m
New Line.9W756_9W757_2662739 Bus1=27137258.1 Bus2=27137261.1 LineCode=PEC1_#1/0_AWG_AL_XLPE_JACKET_CN_ Phases= 1  Length=93.573600 units=m
New Line.9WA90_9WA91_2663181 Bus1=27136705.1 Bus2=27136702.1 LineCode=PEC1_#1/0_AWG_AL_XLPE_JACKET_CN_ Phases= 1  Length=102.412800 units=m
New Line.11E484_106807_2667692 Bus1=27136863.2 Bus2=27136866.2 LineCode=PEC1_#1/0_AWG_AL_XLPE_JACKET_CN_ Phases= 1  Length=68.275200 units=m
New Line.7140K_C1F95_2626926 Bus1=25734577.3 Bus2=27136653.3 LineCode=PEC1_#2_AWG_AL_XLPE_JACKET_CN_D_ Phases= 1  Length=192.328800 units=m
New Line.G261K_G260K_2628404 Bus1=27136696.3 Bus2=26999361.3 LineCode=PEC1_#1/0_AWG_AL_XLPE_JACKET_CN_ Phases= 1  Length=276.453600 units=m
New Line.132359_132360_2673911 Bus1=26999482.2 Bus2=26999455.2 LineCode=PEC1_#1/0_AWG_AL_XLPE_JACKET_CN_ Phases= 1  Length=60.960000 units=m
New Line.U588BH_U589BH_2628347 Bus1=26999333.1 Bus2=26999330.1 LineCode=PEC1_#1/0_AWG_AL_EPR_CN_D_B Phases= 1  Length=138.379200 units=m
New Line.17MN16_17MN17_104282568 Bus1=103383287.3 Bus2=103383296.3 LineCode=PEC1_#1/0_AWG_AL_XLPE_JACKET_CN_ Phases= 1  Length=114.300000 units=m
New Line.BUS_2707109 Bus1=27146927.1.2.3 Bus2=27146930.1.2.3 LineCode=NONE Phases= 3  Length=0.000305 units=m
New Line.BUS_2707108 Bus1=27146926.1.2.3 Bus2=27146929.1.2.3 LineCode=NONE Phases= 3  Length=0.000305 units=m
New Line.14LH99_14LH95_2680796 Bus1=27137101.1 Bus2=27137111.1 LineCode=PEC1_#1/0_AWG_AL_XLPE_JACKET_CN_ Phases= 1  Length=137.769600 units=m
New Line.15QR58_15QR59_103849416 Bus1=103249218.1 Bus2=103249217.1 LineCode=PEC1_#1/0_AWG_AL_XLPE_JACKET_CN_ Phases= 1  Length=91.885008 units=m
New Line.BUS_2707103 Bus1=27146920.1.2.3 Bus2=27146923.1.2.3 LineCode=NONE Phases= 3  Length=0.000305 units=m
New Line.BUS_2707102 Bus1=27146922.1.2.3 Bus2=27146921.1.2.3 LineCode=NONE Phases= 3  Length=0.000305 units=m
New Line.BUS_2707101 Bus1=27146921.1.2.3 Bus2=27146920.1.2.3 LineCode=NONE Phases= 3  Length=0.000305 units=m
New Line.9AM86_9AM85_2659649 Bus1=26999844.3 Bus2=26999858.3 LineCode=PEC1_#1/0_AWG_AL_XLPE_JACKET_CN_ Phases= 1  Length=79.552800 units=m
New Line.BUS_2707107 Bus1=27146926.1.2.3 Bus2=27146928.1.2.3 LineCode=NONE Phases= 3  Length=0.000305 units=m
New Line.BUS_2707106 Bus1=27146927.1.2.3 Bus2=27146926.1.2.3 LineCode=NONE Phases= 3  Length=0.000305 units=m
New Line.17BT60_17BT58_104029668 Bus1=103294850.3 Bus2=103294844.3 LineCode=PEC1_#1/0_AWG_AL_XLPE_JACKET_CN_ Phases= 1  Length=9.144000 units=m
New Line.A547BH_A549BH_2628382 Bus1=26999174.3 Bus2=26999163.3 LineCode=PEC1_#1/0_AWG_AL_EPR_CN_D_B Phases= 1  Length=146.304000 units=m
New Line.BUS_2707105 Bus1=27146921.1.2.3 Bus2=27146925.1.2.3 LineCode=NONE Phases= 3  Length=0.000305 units=m
New Line.BUS_2707104 Bus1=27146920.1.2.3 Bus2=27146924.1.2.3 LineCode=NONE Phases= 3  Length=0.000305 units=m
New Line.106806_106804_2662443 Bus1=27136862.2 Bus2=27136858.2 LineCode=PEC1_#1/0_AWG_AL_XLPE_JACKET_CN_ Phases= 1  Length=221.894400 units=m
New Line.13PX81_13PX82_2676804 Bus1=27000114.1 Bus2=27000111.1 LineCode=PEC1_#1/0_AWG_AL_XLPE_JACKET_CN_ Phases= 1  Length=46.024800 units=m
...
