03_OpenDSS_Circuits/HollySprings_Circuit_Opendss/LinesByPhase.DSS
New Line.149479_D884K_2679897 Phases= 3  Bus1=25783320.1.2.3 Bus2=26854287.1.2.3 Length=53.035200 units=m Spacing=PEC_PEC_23KV_TRIA_3P wires=[PEC_477KCMIL_AAC PEC_477KCMIL_AAC PEC_477KCMIL_AAC PEC_#1/0AWG_AAAC ]
New Line.J381K_J381K_2626999 Phases= 1  Bus1=1105315.3 Bus2=T4795B23_10000051.3 Length=36.576000 units=m Spacing=PEC_PEC_23KV_TRIA_1P wires=[PEC_#4AWG_ACSR PEC_#4AWG_ACSR ]
New Line.U405BH_U406BH_103374222 Phases= 3  Bus1=103119508.1.2.3 Bus2=1141046.1.2.3 Length=36.082224 units=m Spacing=PEC_PEC_23KV_TRIA_3P wires=[PEC_477KCMIL_AAC PEC_477KCMIL_AAC PEC_477KCMIL_AAC PEC_#1/0AWG_AAAC ]
New Line.U399BH_U403BH_2628256 Phases= 3  Bus1=1141029.1.2.3 Bus2=1141031.1.2.3 Length=49.987200 units=m Spacing=PEC_PEC_23KV_TRIA_3P wires=[PEC_477KCMIL_AAC PEC_477KCMIL_AAC PEC_477KCMIL_AAC PEC_#1/0AWG_AAAC ]
New Line.U768BH_U770BH_2626908 Phases= 1  Bus1=1140819.1 Bus2=1140809.1 Length=62.788800 units=m Spacing=PEC_PEC_23KV_TRIA_1P wires=[PEC_#2AWG_ACSR PEC_#2AWG_ACSR ]
New Line.8CM13_7375K_2657047 Phases= 3  Bus1=1104998.1.2.3 Bus2=25426801.1.2.3 Length=57.302400 units=m Spacing=PEC_PEC_23KV_TRIA_3P wires=[PEC_477KCMIL_AAC PEC_477KCMIL_AAC PEC_477KCMIL_AAC PEC_#1/0AWG_ACSR ]
New Line.U563BH_U564BH_2628330 Phases= 3  Bus1=1140225.1.2.3 Bus2=1140224.1.2.3 Length=89.611200 units=m Spacing=PEC_PEC_23KV_TRIA_3P wires=[PEC_477KCMIL_AAC PEC_477KCMIL_AAC PEC_477KCMIL_AAC PEC_#1/0AWG_ACSR ]
New Line.6MG73_6MG74_2653436 Phases= 3  Bus1=25173482.1.2.3 Bus2=6MG73_2667352.1.2.3 Length=82.905600 units=m Spacing=PEC_PEC_23KV_TRIA_3P wires=[PEC_477KCMIL_AAC PEC_477KCMIL_AAC PEC_477KCMIL_AAC PEC_1/0_ACSR ]
New Line.U538BH_U540BH_2628334 Phases= 1  Bus1=1140285.3 Bus2=1140272.3 Length=84.429600 units=m Spacing=PEC_PEC_23KV_TRIA_1P wires=[PEC_#2AWG_ACSR PEC_#2AWG_ACSR ]
New Line.5S377_7372K_2628415 Phases= 3  Bus1=1104677.1.2.3 Bus2=1104678.1.2.3 Length=32.918400 units=m Spacing=PEC_PEC_23KV_HORZ_3P wires=[PEC_477KCMIL_AAC PEC_477KCMIL_AAC PEC_477KCMIL_AAC PEC_#1/0AWG_ACSR ]
New Line.107B90_107C01_2663402 Phases= 3  Bus1=25879307.1.2.3 Bus2=25885367.1.2.3 Length=61.569600 units=m Spacing=PEC_PEC_23KV_VERT_3P wires=[PEC_477KCMIL_AAC PEC_477KCMIL_AAC PEC_477KCMIL_AAC PEC_1/0_ACSR ]
New Line.U394BH_U395BH_2628252 Phases= 3  Bus1=1141306.1.2.3 Bus2=103119511.1.2.3 Length=88.696800 units=m Spacing=PEC_PEC_23KV_HORZ_3P wires=[PEC_477KCMIL_AAC PEC_477KCMIL_AAC PEC_477KCMIL_AAC PEC_#1/0AWG_AAAC ]
New Line.7364K_7365K_2629427 Phases= 1  Bus1=1104964.2 Bus2=1104965.2 Length=39.319200 units=m Spacing=PEC_PEC_23KV_TRIA_1P wires=[PEC_#2AWG_ACSR PEC_#2AWG_ACSR ]
New Line.158L56_U571BH_103537236 Phases= 3  Bus1=103160088.1.2.3 Bus2=26027072.1.2.3 Length=47.362872 units=m Spacing=PEC_PEC_23KV_TRIA_3P wires=[PEC_477KCMIL_AAC PEC_477KCMIL_AAC PEC_477KCMIL_AAC PEC_#1/0AWG_ACSR ]
New Line.A449K_A450K_2626959 Phases= 1  Bus1=1106195.3 Bus2=1106193.3 Length=78.943200 units=m Spacing=PEC_PEC_23KV_TRIA_1P wires=[PEC_#4AWG_ACSR PEC_#4AWG_ACSR ]
New Line.U535BH_U536BH_2628327 Phases= 3  Bus1=1140295.1.2.3 Bus2=1140289.1.2.3 Length=51.511200 units=m Spacing=PEC_PEC_23KV_VERT_3P wires=[PEC_477KCMIL_AAC PEC_477KCMIL_AAC PEC_477KCMIL_AAC PEC_#1/0AWG_ACSR ]
New Line.7361K_A842K_2629431 Phases= 1  Bus1=1104953.2 Bus2=1104951.2 Length=27.432000 units=m Spacing=PEC_PEC_23KV_TRIA_1P wires=[PEC_#2AWG_ACSR PEC_#2AWG_ACSR ]
New Line.107B88_107B89_2663384 Phases= 3  Bus1=1140790.1.2.3 Bus2=25879303.1.2.3 Length=87.172800 units=m Spacing=PEC_PEC_23KV_TRIA_3P wires=[PEC_477KCMIL_AAC PEC_477KCMIL_AAC PEC_477KCMIL_AAC PEC_1/0_ACSR ]
New Line.B324K_B325K_2626951 Phases= 1  Bus1=1106175.3 Bus2=1106172.3 Length=83.210400 units=m Spacing=PEC_PEC_23KV_TRIA_1P wires=[PEC_#1/0AWG_ACSR PEC_#1/0AWG_ACSR ]
New Line.U491BH_U493BH_2628301 Phases= 3  Bus1=1140710.1.2.3 Bus2=1140685.1.2.3 Length=58.216800 units=m Spacing=PEC_PEC_23KV_TRIA_3P wires=[PEC_477KCMIL_AAC PEC_477KCMIL_AAC PEC_477KCMIL_AAC PEC_#1/0AWG_AAAC ]
New Line.U569BH_158L55_2628362 Phases= 3  Bus1=1140123.1.2.3 Bus2=103160087.1.2.3 Length=56.055768 units=m Spacing=PEC_PEC_23KV_TRIA_3P wires=[PEC_477KCMIL_AAC PEC_477KCMIL_AAC PEC_477KCMIL_AAC PEC_#1/0AWG_ACSR ]
New Line.158L52_U474BH_103374496 Phases= 3  Bus1=103117935.1.2.3 Bus2=103117936.1.2.3 Length=84.265008 units=m Spacing=PEC_PEC_23KV_TRIA_3P wires=[PEC_477KCMIL_AAC PEC_477KCMIL_AAC PEC_477KCMIL_AAC PEC_1/0_ACSR ]
New Line.6TD34_U572K_2665355 Phases= 3  Bus1=26027224.1.2.3 Bus2=25240433.1.2.3 Length=7.315200 units=m Spacing=PEC_PEC_23KV_TRIA_3P wires=[PEC_477KCMIL_AAC PEC_477KCMIL_AAC PEC_477KCMIL_AAC PEC_#1/0AWG_AAAC ]
New Line.U543BH_U547BH_2628336 Phases= 1  Bus1=1140222.3 Bus2=1140195.3 Length=76.504800 units=m Spacing=PEC_PEC_23KV_TRIA_1P wires=[PEC_#2AWG_ACSR PEC_#2AWG_ACSR ]
New Line.7143K_7145K_2626923 Phases= 2  Bus1=1106214.1.3 Bus2=1106216.1.3 Length=57.302400 units=m Spacing=PEC_PEC_23KV_TRIA_2P wires=[PEC_#1/0AWG_AAAC PEC_#1/0AWG_AAAC PEC_#2AWG_ACSR ]
New Line.107B88_12JB23_2672973 Phases= 1  Bus1=103125269.1 Bus2=26485021.1 Length=19.202400 units=m Spacing=PEC_PEC_23KV_TRIA_1P wires=[PEC_#1/0AWG_AAAC PEC_1/0_ACSR ]
New Line.A458K_A459K_2626968 Phases= 2  Bus1=26281715.1.3 Bus2=26281714.1.3 Length=59.740800 units=m Spacing=PEC_PEC_23KV_TRIA_2P wires=[PEC_#1/0AWG_ACSR PEC_#1/0AWG_ACSR PEC_#2AWG_ACSR ]
New Line.U566BH_U567BH_2628359 Phases= 3  Bus1=1140197.1.2.3 Bus2=1140167.1.2.3 Length=71.932800 units=m Spacing=PEC_PEC_23KV_TRIA_3P wires=[PEC_477KCMIL_AAC PEC_477KCMIL_AAC PEC_477KCMIL_AAC PEC_#1/0AWG_ACSR ]
New Line.7112K_C799K_2627007 Phases= 2  Bus1=26281700.1.3 Bus2=26281699.1.3 Length=83.820000 units=m Spacing=PEC_PEC_23KV_VERT_2P wires=[PEC_#1/0AWG_ACSR PEC_#1/0AWG_ACSR PEC_#1/0AWG_ACSR ]
New Line.U479BH_U489BH_2667580 Phases= 3  Bus1=103128942.1.2.3 Bus2=26119675.1.2.3 Length=95.707200 units=m Spacing=PEC_PEC_23KV_VERT_3P wires=[PEC_477KCMIL_AAC PEC_477KCMIL_AAC PEC_477KCMIL_AAC PEC_#1/0AWG_AAAC ]
New Line.6MG63_100458_2665163 Phases= 3  Bus1=25173472.1.2.3 Bus2=26803517.1.2.3 Length=91.135200 units=m Spacing=PEC_PEC_23KV_TRIA_3P wires=[PEC_477KCMIL_AAC PEC_477KCMIL_AAC PEC_477KCMIL_AAC PEC_1/0_ACSR ]
New Line.U348BH_G9Z22_2626901 Phases= 3  Bus1=1140866.1.2.3 Bus2=1140863.1.2.3 Length=50.596800 units=m Spacing=PEC_PEC_23KV_VERT_3P wires=[PEC_477KCMIL_AAC PEC_477KCMIL_AAC PEC_477KCMIL_AAC PEC_1/0_ACSR ]
New Line.D884K_D885K_2628410 Phases= 3  Bus1=1104550.1.2.3 Bus2=25783320.1.2.3 Length=83.820000 units=m Spacing=PEC_PEC_23KV_TRIA_3P wires=[PEC_477KCMIL_AAC PEC_477KCMIL_AAC PEC_477KCMIL_AAC PEC_#1/0AWG_AAAC ]
New Line.7367K_158L58_2628408 Phases= 3  Bus1=103181251.1.2.3 Bus2=1104681.1.2.3 Length=57.957720 units=m Spacing=PEC_PEC_23KV_TRIA_3P wires=[PEC_477KCMIL_AAC PEC_477KCMIL_AAC PEC_477KCMIL_AAC PEC_#2AWG_ACSR ]
New Line.U553BH_U554BH_2628342 Phases= 1  Bus1=1140220.3 Bus2=1140190.3 Length=60.655200 units=m Spacing=PEC_PEC_23KV_TRIA_1P wires=[PEC_#2AWG_ACSR PEC_#2AWG_ACSR ]
New Line.U543BH_U551BH_2628337 Phases= 1  Bus1=1140222.3 Bus2=1140193.3 Length=48.768000 units=m Spacing=PEC_PEC_23KV_TRIA_1P wires=[PEC_#2AWG_ACSR PEC_#2AWG_ACSR ]
New Line.10CY32_10CY33_2663809 Phases= 3  Bus1=25905255.1.2.3 Bus2=25905256.1.2.3 Length=97.840800 units=m Spacing=PEC_PEC_23KV_TRIA_3P wires=[PEC_477KCMIL_AAC PEC_477KCMIL_AAC PEC_477KCMIL_AAC PEC_1/0_ACSR ]
New Line.U876BH_U877BH_2625901 Phases= 1  Bus1=1140515.1 Bus2=1140867.1 Length=75.895200 units=m Spacing=PEC_PEC_23KV_TRIA_1P wires=[PEC_#2AWG_ACSR PEC_#2AWG_ACSR ]
New Line.U879BH_U880BH_2625897 Phases= 1  Bus1=1141081.1 Bus2=1141080.1 Length=83.820000 units=m Spacing=PEC_PEC_23KV_TRIA_1P wires=[PEC_#1/0AWG_ACSR PEC_#1/0AWG_ACSR ]
New Line.10EF34_10D187_2663677 Phases= 3  Bus1=25893620.1.2.3 Bus2=25905475.1.2.3 Length=19.507200 units=m Spacing=PEC_PEC_23KV_TRIA_3P wires=[PEC_477KCMIL_AAC PEC_477KCMIL_AAC PEC_477KCMIL_AAC PEC_#4/0AWG_ACSR ]
New Line.7365K_5DN79_2652210 Phases= 1  Bus1=25098741.2 Bus2=1104964.2 Length=64.008000 units=m Spacing=PEC_PEC_23KV_TRIA_1P wires=[PEC_#2AWG_ACSR PEC_#2AWG_ACSR ]
New Line.U122BH_U414BH_103374413 Phases= 3  Bus1=103117918.1.2.3 Bus2=103117921.1.2.3 Length=45.323760 units=m Spacing=PEC_PEC_23KV_TRIA_3P wires=[PEC_477KCMIL_AAC PEC_477KCMIL_AAC PEC_477KCMIL_AAC PEC_1/0_ACSR ]
New Line.14J292_ND80BH_2626904 Phases= 3  Bus1=1140858.1.2.3 Bus2=1140827.1.2.3 Length=75.285600 units=m Spacing=PEC_PEC_23KV_VERT_3P wires=[PEC_477KCMIL_AAC PEC_477KCMIL_AAC PEC_477KCMIL_AAC PEC_1/0_ACSR ]
New Line.7351K_7352K_2629421 Phases= 1  Bus1=1104732.2 Bus2=1104708.2 Length=99.669600 units=m Spacing=PEC_PEC_23KV_TRIA_1P wires=[PEC_#4AWG_ACSR PEC_#4AWG_ACSR ]
New Line.U787BH_U789BH_2626941 Phases= 2  Bus1=1140453.1.3 Bus2=1140305.1.3 Length=49.377600 units=m Spacing=PEC_PEC_23KV_TRIA_2P wires=[PEC_#1/0AWG_AAAC PEC_#1/0AWG_AAAC PEC_#2AWG_ACSR ]
New Line.5R685_7110K_2627028 Phases= 1  Bus1=103675378.1 Bus2=26281695.1 Length=67.056000 units=m Spacing=PEC_PEC_23KV_TRIA_1P wires=[PEC_#2AWG_ACSR PEC_#2AWG_ACSR ]
New Line.A450K_A451K_2626960 Phases= 1  Bus1=1106193.3 Bus2=1106220.3 Length=76.200000 units=m Spacing=PEC_PEC_23KV_TRIA_1P wires=[PEC_#4AWG_ACSR PEC_#4AWG_ACSR ]
New Line.7112K_13HW95_2627006 Phases= 2  Bus1=26281699.1.3 Bus2=26677225.1.3 Length=62.179200 units=m Spacing=PEC_PEC_23KV_TRIA_2P wires=[PEC_#1/0AWG_ACSR PEC_#1/0AWG_ACSR PEC_#1/0AWG_ACSR ]
New Line.U409BH_U122BH_103374408 Phases= 3  Bus1=103118125.1.2.3 Bus2=103117918.1.2.3 Length=76.352400 units=m Spacing=PEC_PEC_23KV_TRIA_3P wires=[PEC_477KCMIL_AAC PEC_477KCMIL_AAC PEC_477KCMIL_AAC PEC_1/0_ACSR ]
New Line.12116_12118_2627013 Phases= 2  Bus1=26281708.1.3 Bus2=26281709.1.3 Length=26.822400 units=m Spacing=PEC_PEC_23KV_TRIA_2P wires=[PEC_#1/0AWG_AAC PEC_#1/0AWG_AAC PEC_#1/0AWG_AAC ]
New Line.U760BH_2X516_2626937 Phases= 1  Bus1=1140489.1 Bus2=25111713.1 Length=49.987200 units=m Spacing=PEC_PEC_23KV_TRIA_1P wires=[PEC_#2AWG_ACSR PEC_1/0_ACSR ]
New Line.U494BH_U495BH_2628304 Phases= 1  Bus1=1140682.3 Bus2=1140673.3 Length=55.778400 units=m Spacing=PEC_PEC_23KV_TRIA_1P wires=[PEC_#2AWG_ACSR PEC_#2AWG_ACSR ]
New Line.A456K_A466K_2626970 Phases= 1  Bus1=26165251.1 Bus2=1105664.1 Length=92.659200 units=m Spacing=PEC_PEC_23KV_TRIA_1P wires=[PEC_#4AWG_ACSR PEC_#4AWG_ACSR ]
New Line.107B90_2XB15_2626938 Phases= 2  Bus1=25726610.1.3 Bus2=1140469.1.3 Length=66.141600 units=m Spacing=PEC_PEC_23KV_VERT_2P wires=[PEC_#1/0AWG_AAAC PEC_#1/0AWG_AAAC PEC_#2AWG_ACSR ]
New Line.S001K_U574K_2673190 Phases= 3  Bus1=26499102.1.2.3 Bus2=1104992.1.2.3 Length=96.621600 units=m Spacing=PEC_PEC_23KV_TRIA_3P wires=[PEC_477KCMIL_AAC PEC_477KCMIL_AAC PEC_477KCMIL_AAC PEC_#1/0AWG_AAAC ]
New Line.7139K_7140K_2626925 Phases= 1  Bus1=1106104.3 Bus2=1106100.3 Length=25.298400 units=m Spacing=PEC_PEC_23KV_TRIA_1P wires=[PEC_#4AWG_ACSR PEC_#4AWG_ACSR ]
New Line.S001K_7378K_2628397 Phases= 3  Bus1=1104992.1.2.3 Bus2=1104995.1.2.3 Length=75.285600 units=m Spacing=PEC_PEC_23KV_TRIA_3P wires=[PEC_477KCMIL_AAC PEC_477KCMIL_AAC PEC_477KCMIL_AAC PEC_#1/0AWG_ACSR ]
New Line.105505_U339BH_103020784 Phases= 3  Bus1=103007685.1.2.3 Bus2=103007628.1.2.3 Length=16.693896 units=m Spacing=PEC_PEC_23KV_HORZ_3P wires=[PEC_477KCMIL_AAC PEC_477KCMIL_AAC PEC_477KCMIL_AAC PEC_#4/0AWG_AAAC ]
New Line.107C01_0M737_2626939 Phases= 3  Bus1=25885367.1.2.3 Bus2=25885435.1.2.3 Length=80.772000 units=m Spacing=PEC_PEC_23KV_TRIA_3P wires=[PEC_477KCMIL_AAC PEC_477KCMIL_AAC PEC_477KCMIL_AAC PEC_1/0_ACSR ]
New Line.A463K_12116_2627012 Phases= 2  Bus1=26281708.1.3 Bus2=26281707.1.3 Length=100.888800 units=m Spacing=PEC_PEC_23KV_TRIA_2P wires=[PEC_#1/0AWG_ACSR PEC_#1/0AWG_ACSR PEC_#1/0AWG_ACSR ]
New Line.CCV22_6TD34_2654584 Phases= 3  Bus1=25240433.1.2.3 Bus2=1105027.1.2.3 Length=34.747200 units=m Spacing=PEC_PEC_23KV_TRIA_3P wires=[PEC_477KCMIL_AAC PEC_477KCMIL_AAC PEC_477KCMIL_AAC PEC_#1/0AWG_AAAC ]
New Line.U872BH_U874BH_2625899 Phases= 3  Bus1=25885434.1.2.3 Bus2=25885433.1.2.3 Length=78.638400 units=m Spacing=PEC_PEC_23KV_TRIA_3P wires=[PEC_477KCMIL_AAC PEC_477KCMIL_AAC PEC_477KCMIL_AAC PEC_1/0_ACSR ]
New Line.7231K_158Q94_2628407 Phases= 3  Bus1=103180975.1.2.3 Bus2=1104683.1.2.3 Length=54.223920 units=m Spacing=PEC_PEC_23KV_HORZ_3P wires=[PEC_477KCMIL_AAC PEC_477KCMIL_AAC PEC_477KCMIL_AAC PEC_#1/0AWG_ACSR ]
New Line.U498BH_U517BH_2628306 Phases= 1  Bus1=1140418.3 Bus2=1140415.3 Length=93.268800 units=m Spacing=PEC_PEC_23KV_TRIA_1P wires=[PEC_#1/0AWG_ACSR PEC_#1/0AWG_ACSR ]
New Line.U518BH_U519BH_2628308 Phases= 1  Bus1=1140700.3 Bus2=1140698.3 Length=78.028800 units=m Spacing=PEC_PEC_23KV_TRIA_1P wires=[PEC_#1/0AWG_ACSR PEC_#1/0AWG_ACSR ]
New Line.0M737_U872BH_2626945 Phases= 3  Bus1=25885435.1.2.3 Bus2=25885434.1.2.3 Length=81.076800 units=m Spacing=PEC_PEC_23KV_HORZ_3P wires=[PEC_477KCMIL_AAC PEC_477KCMIL_AAC PEC_477KCMIL_AAC PEC_1/0_ACSR ]
New Line.U787BH_U791BH_2626942 Phases= 1  Bus1=103197620.3 Bus2=1140467.3 Length=27.736800 units=m Spacing=PEC_PEC_23KV_TRIA_1P wires=[PEC_#6AWG_CSD PEC_#6AWG_CSD ]
New Line.7354K_7356K_2629424 Phases= 1  Bus1=1104968.2 Bus2=1104971.2 Length=116.738400 units=m Spacing=PEC_PEC_23KV_TRIA_1P wires=[PEC_#2AWG_ACSR PEC_#2AWG_ACSR ]
New Line.U343BH_G9Z21_2626899 Phases= 3  Bus1=103007689.1.2.3 Bus2=25859631.1.2.3 Length=48.158400 units=m Spacing=PEC_PEC_23KV_VERT_3P wires=[PEC_477KCMIL_AAC PEC_477KCMIL_AAC PEC_477KCMIL_AAC PEC_1/0_ACSR ]
New Line.B323K_B324K_2626950 Phases= 1  Bus1=1106201.3 Bus2=1106175.3 Length=42.062400 units=m Spacing=PEC_PEC_23KV_TRIA_1P wires=[PEC_#1/0AWG_ACSR PEC_#1/0AWG_ACSR ]
New Line.U761BH_U764BH_2626947 Phases= 1  Bus1=1140496.1 Bus2=1140821.1 Length=58.521600 units=m Spacing=PEC_PEC_23KV_TRIA_1P wires=[PEC_#2AWG_ACSR PEC_#2AWG_ACSR ]
New Line.7377K_7378K_2628396 Phases= 3  Bus1=1104995.1.2.3 Bus2=1104997.1.2.3 Length=138.684000 units=m Spacing=PEC_PEC_23KV_TRIA_3P wires=[PEC_477KCMIL_AAC PEC_477KCMIL_AAC PEC_477KCMIL_AAC PEC_#1/0AWG_ACSR ]
New Line.G9L63_G9L64_2625903 Phases= 3  Bus1=25885432.1.2.3 Bus2=25885431.1.2.3 Length=88.087200 units=m Spacing=PEC_PEC_23KV_VERT_3P wires=[PEC_477KCMIL_AAC PEC_477KCMIL_AAC PEC_477KCMIL_AAC PEC_1/0_ACSR ]
New Line.U565BH_U566BH_2628332 Phases= 3  Bus1=1140198.1.2.3 Bus2=1140197.1.2.3 Length=110.032800 units=m Spacing=PEC_PEC_23KV_TRIA_3P wires=[PEC_477KCMIL_AAC PEC_477KCMIL_AAC PEC_477KCMIL_AAC PEC_#1/0AWG_ACSR ]
New Line.C817K_A463K_2627011 Phases= 2  Bus1=26281707.1.3 Bus2=26281704.1.3 Length=56.997600 units=m Spacing=PEC_PEC_23KV_VERT_2P wires=[PEC_#1/0AWG_ACSR PEC_#1/0AWG_ACSR PEC_#1/0AWG_ACSR ]
New Line.10CY33_119L99_2677000 Phases= 3  Bus1=25905256.1.2.3 Bus2=26133822.1.2.3 Length=97.536000 units=m Spacing=PEC_PEC_23KV_TRIA_3P wires=[PEC_477KCMIL_AAC PEC_477KCMIL_AAC PEC_477KCMIL_AAC PEC_1/0_ACSR ]
New Line.B327K_B328K_2626954 Phases= 1  Bus1=1106152.3 Bus2=1106143.3 Length=84.429600 units=m Spacing=PEC_PEC_23KV_TRIA_1P wires=[PEC_#1/0AWG_ACSR PEC_#1/0AWG_ACSR ]
New Line.7228K_D883K_2628432 Phases= 3  Bus1=1104449.1.2.3 Bus2=1104450.1.2.3 Length=90.830400 units=m Spacing=PEC_PEC_23KV_TRIA_3P wires=[PEC_477KCMIL_AAC PEC_477KCMIL_AAC PEC_477KCMIL_AAC PEC_#1/0AWG_AAAC ]
New Line.6MG68_6MG67_2677002 Phases= 3  Bus1=25274945.1.2.3 Bus2=26698613.1.2.3 Length=79.248000 units=m Spacing=PEC_PEC_23KV_TRIA_3P wires=[PEC_477KCMIL_AAC PEC_477KCMIL_AAC PEC_477KCMIL_AAC PEC_1/0_ACSR ]
New Line.A459K_A460K_2626969 Phases= 2  Bus1=26281714.1.3 Bus2=26281712.1.3 Length=104.851200 units=m Spacing=PEC_PEC_23KV_TRIA_2P wires=[PEC_#1/0AWG_ACSR PEC_#1/0AWG_ACSR PEC_#1/0AWG_ACSR ]
New Line.U349BH_G9Z23_2626916 Phases= 3  Bus1=1140862.1.2.3 Bus2=1140784.1.2.3 Length=69.494400 units=m Spacing=PEC_PEC_23KV_VERT_3P wires=[PEC_477KCMIL_AAC PEC_477KCMIL_AAC PEC_477KCMIL_AAC PEC_1/0_ACSR ]
New Line.141D28_6MG75_2678592 Phases= 3  Bus1=25932967.1.2.3 Bus2=26803492.1.2.3 Length=14.630400 units=m Spacing=PEC_PEC_23KV_VERT_3P wires=[PEC_477KCMIL_AAC PEC_477KCMIL_AAC PEC_477KCMIL_AAC PEC_1/0_ACSR ]
New Line.U498BH_U514BH_2628321 Phases= 3  Bus1=1140417.1.2.3 Bus2=1140378.1.2.3 Length=98.755200 units=m Spacing=PEC_PEC_23KV_TRIA_3P wires=[PEC_477KCMIL_AAC PEC_477KCMIL_AAC PEC_477KCMIL_AAC PEC_#1/0AWG_AAAC ]
New Line.U754BH_U755BH_2626932 Phases= 1  Bus1=103125270.1 Bus2=1140502.1 Length=43.281600 units=m Spacing=PEC_PEC_23KV_TRIA_1P wires=[PEC_#2AWG_ACSR PEC_1/0_ACSR ]
New Line.U522BH_U522BH_2628310 Phases= 1  Bus1=1140709.3 Bus2=T4795B23_10000052.3 Length=44.196000 units=m Spacing=PEC_PEC_23KV_TRIA_1P wires=[PEC_#2AWG_ACSR PEC_#1/0AWG_ACSR ]
New Line.U779BH_U779BH_2626913 Phases= 1  Bus1=1140842.1 Bus2=T4795B23_10000050.1 Length=104.546400 units=m Spacing=PEC_PEC_23KV_TRIA_1P wires=[PEC_#2AWG_ACSR PEC_#2AWG_ACSR ]
New Line.D883K_149479_2628433 Phases= 3  Bus1=26854287.1.2.3 Bus2=1104449.1.2.3 Length=45.415200 units=m Spacing=PEC_PEC_23KV_TRIA_3P wires=[PEC_477KCMIL_AAC PEC_477KCMIL_AAC PEC_477KCMIL_AAC PEC_#1/0AWG_AAAC ]
New Line.U493BH_U497BH_2628302 Phases= 3  Bus1=1140685.1.2.3 Bus2=1140702.1.2.3 Length=60.655200 units=m Spacing=PEC_PEC_23KV_TRIA_3P wires=[PEC_477KCMIL_AAC PEC_477KCMIL_AAC PEC_477KCMIL_AAC PEC_#1/0AWG_AAAC ]
New Line.6MG69_6MG70_2653432 Phases= 3  Bus1=25173478.1.2.3 Bus2=25173477.1.2.3 Length=56.997600 units=m Spacing=PEC_PEC_23KV_TRIA_3P wires=[PEC_477KCMIL_AAC PEC_477KCMIL_AAC PEC_477KCMIL_AAC PEC_1/0_ACSR ]
New Line.A169K_A455K_2626964 Phases= 2  Bus1=1105717.1.3 Bus2=103010980.1.3 Length=101.803200 units=m Spacing=PEC_PEC_23KV_VERT_2P wires=[PEC_#1/0AWG_AAAC PEC_#1/0AWG_AAAC PEC_#2AWG_ACSR ]
New Line.158L55_U570BH_103537233 Phases= 3  Bus1=103160087.1.2.3 Bus2=1140119.1.2.3 Length=45.442632 units=m Spacing=PEC_PEC_23KV_TRIA_3P wires=[PEC_477KCMIL_AAC PEC_477KCMIL_AAC PEC_477KCMIL_AAC PEC_#1/0AWG_ACSR ]
New Line.ND81BH_14J292_2626903 Phases= 3  Bus1=1140860.1.2.3 Bus2=1140858.1.2.3 Length=81.381600 units=m Spacing=PEC_PEC_23KV_VERT_3P wires=[PEC_477KCMIL_AAC PEC_477KCMIL_AAC PEC_477KCMIL_AAC PEC_1/0_ACSR ]
New Line.7372K_8CM12_2657045 Phases= 3  Bus1=25426800.1.2.3 Bus2=1104677.1.2.3 Length=107.289600 units=m Spacing=PEC_PEC_23KV_VERT_3P wires=[PEC_477KCMIL_AAC PEC_477KCMIL_AAC PEC_477KCMIL_AAC PEC_#1/0AWG_ACSR ]
New Line.7348K_7349K_2629440 Phases= 1  Bus1=1104641.2 Bus2=1104638.2 Length=150.266400 units=m Spacing=PEC_PEC_23KV_TRIA_1P wires=[PEC_#1/0AWG_ACSR PEC_#1/0AWG_ACSR ]
New Line.158L51_U399BH_103374339 Phases= 3  Bus1=1141031.1.2.3 Bus2=103117894.1.2.3 Length=43.726608 units=m Spacing=PEC_PEC_23KV_HORZ_3P wires=[PEC_477KCMIL_AAC PEC_477KCMIL_AAC PEC_477KCMIL_AAC PEC_#1/0AWG_AAAC ]
New Line.13HW95_7110K_2676067 Phases= 2  Bus1=26677225.1.3 Bus2=26281693.1.3 Length=20.726400 units=m Spacing=PEC_PEC_23KV_TRIA_2P wires=[PEC_#1/0AWG_ACSR PEC_#1/0AWG_ACSR PEC_#1/0AWG_ACSR ]
New Line.A458K_A469K_2626972 Phases= 1  Bus1=26165252.3 Bus2=1105592.3 Length=65.836800 units=m Spacing=PEC_PEC_23KV_TRIA_1P wires=[PEC_#4AWG_ACSR PEC_#4AWG_ACSR ]
New Line.G2309_U569BH_2628361 Phases= 3  Bus1=1140124.1.2.3 Bus2=1140123.1.2.3 Length=64.008000 units=m Spacing=PEC_PEC_23KV_HORZ_3P wires=[PEC_477KCMIL_AAC PEC_477KCMIL_AAC PEC_477KCMIL_AAC PEC_#1/0AWG_ACSR ]
New Line.158L54_U565BH_103537223 Phases= 3  Bus1=103160086.1.2.3 Bus2=1140198.1.2.3 Length=45.595032 units=m Spacing=PEC_PEC_23KV_TRIA_3P wires=[PEC_477KCMIL_AAC PEC_477KCMIL_AAC PEC_477KCMIL_AAC PEC_#1/0AWG_ACSR ]
New Line.U877BH_U878BH_2625895 Phases= 1  Bus1=1140867.1 Bus2=1140874.1 Length=104.546400 units=m Spacing=PEC_PEC_23KV_TRIA_1P wires=[PEC_#2AWG_ACSR PEC_#2AWG_ACSR ]
New Line.6MG67_7RE78_2676507 Phases= 3  Bus1=26698613.1.2.3 Bus2=25173474.1.2.3 Length=81.991200 units=m Spacing=PEC_PEC_23KV_TRIA_3P wires=[PEC_477KCMIL_AAC PEC_477KCMIL_AAC PEC_477KCMIL_AAC PEC_1/0_ACSR ]
New Line.U771BH_U774BH_2626910 Phases= 1  Bus1=1140854.1 Bus2=1140852.1 Length=59.740800 units=m Spacing=PEC_PEC_23KV_TRIA_1P wires=[PEC_#2AWG_ACSR PEC_#2AWG_ACSR ]
New Line.158Q94_7367K_103610407 Phases= 3  Bus1=1104681.1.2.3 Bus2=103180975.1.2.3 Length=47.579280 units=m Spacing=PEC_PEC_23KV_TRIA_3P wires=[PEC_477KCMIL_AAC PEC_477KCMIL_AAC PEC_477KCMIL_AAC PEC_#1/0AWG_ACSR ]
New Line.A432K_A867K_2627005 Phases= 1  Bus1=1105689.3 Bus2=1105687.3 Length=59.436000 units=m Spacing=PEC_PEC_23KV_TRIA_1P wires=[PEC_#1/0AWG_ACSR PEC_#1/0AWG_ACSR ]
New Line.U754BH_U758BH_2626934 Phases= 3  Bus1=25879306.1.2.3 Bus2=1140498.1.2.3 Length=70.104000 units=m Spacing=PEC_PEC_23KV_TRIA_3P wires=[PEC_477KCMIL_AAC PEC_477KCMIL_AAC PEC_477KCMIL_AAC PEC_1/0_ACSR ]
New Line.U493BH_U494BH_2628303 Phases= 1  Bus1=25726608.3 Bus2=1140682.3 Length=50.292000 units=m Spacing=PEC_PEC_23KV_TRIA_1P wires=[PEC_#2AWG_ACSR PEC_#2AWG_ACSR ]
New Line.10CY28_10CY29_2678557 Phases= 3  Bus1=26803447.1.2.3 Bus2=26803448.1.2.3 Length=78.943200 units=m Spacing=PEC_PEC_23KV_TRIA_3P wires=[PEC_477KCMIL_AAC PEC_477KCMIL_AAC PEC_477KCMIL_AAC PEC_1/0_ACSR ]
New Line.A460K_A461K_2626974 Phases= 2  Bus1=26281712.1.3 Bus2=26281711.1.3 Length=81.076800 units=m Spacing=PEC_PEC_23KV_TRIA_2P wires=[PEC_#1/0AWG_ACSR PEC_#1/0AWG_ACSR PEC_#2AWG_ACSR ]
New Line.G9Z22_U349BH_2626902 Phases= 3  Bus1=1140863.1.2.3 Bus2=1140862.1.2.3 Length=55.778400 units=m Spacing=PEC_PEC_23KV_VERT_3P wires=[PEC_477KCMIL_AAC PEC_477KCMIL_AAC PEC_477KCMIL_AAC PEC_1/0_ACSR ]
New Line.105505_U343BH_2663075 Phases= 3  Bus1=103007685.1.2.3 Bus2=103007689.1.2.3 Length=40.538400 units=m Spacing=PEC_PEC_23KV_TRIA_3P wires=[PEC_477KCMIL_AAC PEC_477KCMIL_AAC PEC_477KCMIL_AAC PEC_1/0_ACSR ]
New Line.U760BH_U761BH_2626936 Phases= 1  Bus1=25717570.1 Bus2=1140496.1 Length=61.264800 units=m Spacing=PEC_PEC_23KV_TRIA_1P wires=[PEC_#2AWG_ACSR PEC_1/0_ACSR ]
New Line.U350BH_G9Z24_2626918 Phases= 3  Bus1=1140782.1.2.3 Bus2=26870214.1.2.3 Length=28.651200 units=m Spacing=PEC_PEC_23KV_TRIA_3P wires=[PEC_477KCMIL_AAC PEC_477KCMIL_AAC PEC_477KCMIL_AAC PEC_1/0_ACSR ]
New Line.U519BH_U521BH_2628309 Phases= 1  Bus1=1140698.3 Bus2=1140709.3 Length=42.976800 units=m Spacing=PEC_PEC_23KV_TRIA_1P wires=[PEC_#1/0AWG_ACSR PEC_#1/0AWG_ACSR ]
New Line.U433BH_U434BH_103374432 Phases= 3  Bus1=103117925.1.2.3 Bus2=103117927.1.2.3 Length=67.476624 units=m Spacing=PEC_PEC_23KV_VERT_3P wires=[PEC_477KCMIL_AAC PEC_477KCMIL_AAC PEC_477KCMIL_AAC PEC_1/0_ACSR ]
New Line.U551BH_U553BH_2628338 Phases= 1  Bus1=1140193.3 Bus2=1140220.3 Length=50.596800 units=m Spacing=PEC_PEC_23KV_TRIA_1P wires=[PEC_#2AWG_ACSR PEC_#2AWG_ACSR ]
New Line.G9Z21_U348BH_2662765 Phases= 3  Bus1=103136725.1.2.3 Bus2=1140866.1.2.3 Length=41.148000 units=m Spacing=PEC_PEC_23KV_VERT_3P wires=[PEC_477KCMIL_AAC PEC_477KCMIL_AAC PEC_477KCMIL_AAC PEC_1/0_ACSR ]
New Line.7352K_7353K_2629422 Phases= 1  Bus1=1104708.2 Bus2=1104705.2 Length=82.905600 units=m Spacing=PEC_PEC_23KV_TRIA_1P wires=[PEC_#4AWG_ACSR PEC_#4AWG_ACSR ]
New Line.U517BH_U518BH_2628307 Phases= 1  Bus1=1140415.3 Bus2=1140700.3 Length=62.179200 units=m Spacing=PEC_PEC_23KV_TRIA_1P wires=[PEC_#1/0AWG_ACSR PEC_#1/0AWG_ACSR ]
New Line.U760BH_107B90_2663387 Phases= 3  Bus1=1140489.1.2.3 Bus2=25879307.1.2.3 Length=58.521600 units=m Spacing=PEC_PEC_23KV_VERT_3P wires=[PEC_477KCMIL_AAC PEC_477KCMIL_AAC PEC_477KCMIL_AAC PEC_1/0_ACSR ]
New Line.100458_7RE77_2653430 Phases= 3  Bus1=25173473.1.2.3 Bus2=25173472.1.2.3 Length=56.997600 units=m Spacing=PEC_PEC_23KV_TRIA_3P wires=[PEC_477KCMIL_AAC PEC_477KCMIL_AAC PEC_477KCMIL_AAC PEC_1/0_ACSR ]
New Line.U878BH_U879BH_2625896 Phases= 1  Bus1=1140874.1 Bus2=1141081.1 Length=97.840800 units=m Spacing=PEC_PEC_23KV_TRIA_1P wires=[PEC_#1/0AWG_ACSR PEC_#1/0AWG_ACSR ]
New Line.A169K_14MG90_2626963 Phases= 2  Bus1=103004846.1.3 Bus2=1105717.1.3 Length=59.588400 units=m Spacing=PEC_PEC_23KV_VERT_2P wires=[PEC_#1/0AWG_AAAC PEC_#1/0AWG_AAAC PEC_#2AWG_ACSR ]
New Line.6MG74_141D28_2653437 Phases= 3  Bus1=26803492.1.2.3 Bus2=25173482.1.2.3 Length=51.511200 units=m Spacing=PEC_PEC_23KV_TRIA_3P wires=[PEC_477KCMIL_AAC PEC_477KCMIL_AAC PEC_477KCMIL_AAC PEC_1/0_ACSR ]
New Line.U764BH_U768BH_2626907 Phases= 1  Bus1=1140821.1 Bus2=1140819.1 Length=56.997600 units=m Spacing=PEC_PEC_23KV_TRIA_1P wires=[PEC_#2AWG_ACSR PEC_#2AWG_ACSR ]
New Line.7146K_B323K_2626949 Phases= 1  Bus1=26165248.3 Bus2=1106201.3 Length=78.028800 units=m Spacing=PEC_PEC_23KV_TRIA_1P wires=[PEC_#1/0AWG_ACSR PEC_#1/0AWG_ACSR ]
New Line.U770BH_U771BH_2626909 Phases= 1  Bus1=1140809.1 Bus2=1140854.1 Length=57.912000 units=m Spacing=PEC_PEC_23KV_TRIA_1P wires=[PEC_#2AWG_ACSR PEC_#2AWG_ACSR ]
New Line.U774BH_U775BH_2626911 Phases= 1  Bus1=1140852.1 Bus2=1140844.1 Length=57.912000 units=m Spacing=PEC_PEC_23KV_TRIA_1P wires=[PEC_#2AWG_ACSR PEC_#2AWG_ACSR ]
New Line.U398BH_158L51_2628255 Phases= 3  Bus1=103117894.1.2.3 Bus2=1141033.1.2.3 Length=62.953392 units=m Spacing=PEC_PEC_23KV_TRIA_3P wires=[PEC_477KCMIL_AAC PEC_477KCMIL_AAC PEC_477KCMIL_AAC PEC_#1/0AWG_AAAC ]
New Line.7347K_7348K_2629439 Phases= 1  Bus1=1104638.2 Bus2=T4795B23_10000053.2 Length=145.389600 units=m Spacing=PEC_TRIANGULAR_1P wires=[PEC_#1/0AWG_ACSR PEC_#1/0AWG_ACSR ]
New Line.A456K_A465K_2626971 Phases= 2  Bus1=26281717.1.3 Bus2=26281718.1.3 Length=111.556800 units=m Spacing=PEC_PEC_23KV_TRIA_2P wires=[PEC_#1/0AWG_ACSR PEC_#1/0AWG_ACSR PEC_#1/0AWG_ACSR ]
New Line.U537BH_U563BH_2628329 Phases= 3  Bus1=1140287.1.2.3 Bus2=1140225.1.2.3 Length=21.945600 units=m Spacing=PEC_PEC_23KV_TRIA_3P wires=[PEC_477KCMIL_AAC PEC_477KCMIL_AAC PEC_477KCMIL_AAC PEC_#1/0AWG_ACSR ]
New Line.7356K_7363K_2629425 Phases= 1  Bus1=1104967.2 Bus2=1104968.2 Length=101.803200 units=m Spacing=PEC_PEC_23KV_TRIA_1P wires=[PEC_#2AWG_ACSR PEC_#2AWG_ACSR ]
New Line.U794BH_U870BH_2626946 Phases= 1  Bus1=1140456.3 Bus2=1140505.3 Length=117.652800 units=m Spacing=PEC_PEC_23KV_TRIA_1P wires=[PEC_#2AWG_ACSR PEC_#2AWG_ACSR ]
New Line.A457K_A458K_2626967 Phases= 2  Bus1=26281716.1.3 Bus2=26281715.1.3 Length=65.532000 units=m Spacing=PEC_PEC_23KV_TRIA_2P wires=[PEC_#1/0AWG_ACSR PEC_#1/0AWG_ACSR PEC_#2AWG_ACSR ]
New Line.U540BH_U543BH_2628335 Phases= 1  Bus1=1140272.3 Bus2=1140222.3 Length=94.488000 units=m Spacing=PEC_PEC_23KV_TRIA_1P wires=[PEC_#2AWG_ACSR PEC_#2AWG_ACSR ]
New Line.U874BH_U876BH_2625900 Phases= 1  Bus1=25717575.1 Bus2=1140515.1 Length=81.076800 units=m Spacing=PEC_PEC_23KV_TRIA_1P wires=[PEC_#2AWG_ACSR PEC_1/0_ACSR ]
New Line.G9L64_G9L65_2625904 Phases= 3  Bus1=25885431.1.2.3 Bus2=25885430.1.2.3 Length=98.450400 units=m Spacing=PEC_PEC_23KV_VERT_3P wires=[PEC_477KCMIL_AAC PEC_477KCMIL_AAC PEC_477KCMIL_AAC PEC_1/0_ACSR ]
New Line.U362BH_U363BH_2626906 Phases= 1  Bus1=1140825.1 Bus2=1140856.1 Length=100.279200 units=m Spacing=PEC_PEC_23KV_TRIA_1P wires=[PEC_#1/0AWG_ACSR PEC_#1/0AWG_ACSR ]
New Line.U557BH_U561BH_2628340 Phases= 1  Bus1=1140218.3 Bus2=1140270.3 Length=77.419200 units=m Spacing=PEC_PEC_23KV_TRIA_1P wires=[PEC_#2AWG_ACSR PEC_#2AWG_ACSR ]
New Line.U564BH_158L54_2628331 Phases= 3  Bus1=1140224.1.2.3 Bus2=103160086.1.2.3 Length=56.817768 units=m Spacing=PEC_PEC_23KV_TRIA_3P wires=[PEC_477KCMIL_AAC PEC_477KCMIL_AAC PEC_477KCMIL_AAC PEC_#1/0AWG_ACSR ]
New Line.A461K_12116_2627001 Phases= 2  Bus1=26281711.1.3 Bus2=26281708.1.3 Length=99.974400 units=m Spacing=PEC_PEC_23KV_TRIA_2P wires=[PEC_#1/0AWG_ACSR PEC_#1/0AWG_ACSR PEC_#1/0AWG_ACSR ]
New Line.G9Z23_U350BH_2626917 Phases= 3  Bus1=1140784.1.2.3 Bus2=1140782.1.2.3 Length=43.281600 units=m Spacing=PEC_PEC_23KV_VERT_3P wires=[PEC_477KCMIL_AAC PEC_477KCMIL_AAC PEC_477KCMIL_AAC PEC_1/0_ACSR ]
New Line.7231K_7232K_2628412 Phases= 1  Bus1=1104683.1 Bus2=1104674.1 Length=35.052000 units=m Spacing=PEC_PEC_23KV_TRIA_1P wires=[PEC_#4AWG_CHD PEC_#4AWG_CHD ]
New Line.119L99_10DQ79_2667809 Phases= 3  Bus1=26133822.1.2.3 Bus2=26331048.1.2.3 Length=11.582400 units=m Spacing=PEC_PEC_23KV_TRIA_3P wires=[PEC_477KCMIL_AAC PEC_477KCMIL_AAC PEC_477KCMIL_AAC PEC_1/0_ACSR ]
New Line.A469K_A470K_2626973 Phases= 1  Bus1=1105592.3 Bus2=1105636.3 Length=52.730400 units=m Spacing=PEC_PEC_23KV_TRIA_1P wires=[PEC_#4AWG_ACSR PEC_#4AWG_ACSR ]
New Line.7378K_ABK62K_2628399 Phases= 1  Bus1=1104995.3 Bus2=1104989.3 Length=39.928800 units=m Spacing=PEC_PEC_23KV_TRIA_1P wires=[PEC_#2AWG_ACSR PEC_#2AWG_ACSR ]
New Line.S001K_U576K_2628398 Phases= 1  Bus1=1104993.2 Bus2=1104978.2 Length=111.556800 units=m Spacing=PEC_PEC_23KV_TRIA_1P wires=[PEC_#4AWG_ACSR PEC_#4AWG_ACSR ]
New Line.7145K_A448K_2626957 Phases= 1  Bus1=26160639.3 Bus2=1106210.3 Length=80.467200 units=m Spacing=PEC_PEC_23KV_TRIA_1P wires=[PEC_#4AWG_ACSR PEC_#4AWG_ACSR ]
New Line.B326K_B327K_2626953 Phases= 1  Bus1=1106162.3 Bus2=1106152.3 Length=117.957600 units=m Spacing=PEC_PEC_23KV_TRIA_1P wires=[PEC_#1/0AWG_ACSR PEC_#1/0AWG_ACSR ]
New Line.PM738_107B88_2626915 Phases= 3  Bus1=1140795.1.2.3 Bus2=1140790.1.2.3 Length=52.730400 units=m Spacing=PEC_PEC_23KV_TRIA_3P wires=[PEC_477KCMIL_AAC PEC_477KCMIL_AAC PEC_477KCMIL_AAC PEC_1/0_ACSR ]
New Line.U355BH_ND81BH_2678279 Phases= 3  Bus1=26796625.1.2.3 Bus2=1140860.1.2.3 Length=74.066400 units=m Spacing=PEC_PEC_23KV_VERT_3P wires=[PEC_477KCMIL_AAC PEC_477KCMIL_AAC PEC_477KCMIL_AAC PEC_1/0_ACSR ]
New Line.U474BH_U476BH_103374497 Phases= 3  Bus1=103117936.1.2.3 Bus2=103117937.1.2.3 Length=67.991736 units=m Spacing=PEC_PEC_23KV_TRIA_3P wires=[PEC_477KCMIL_AAC PEC_477KCMIL_AAC PEC_477KCMIL_AAC PEC_1/0_ACSR ]
New Line.7369K_5S377_2628409 Phases= 3  Bus1=1104678.1.2.3 Bus2=1104680.1.2.3 Length=100.279200 units=m Spacing=PEC_PEC_23KV_TRIA_3P wires=[PEC_477KCMIL_AAC PEC_477KCMIL_AAC PEC_477KCMIL_AAC PEC_#1/0AWG_ACSR ]
New Line.U489BH_U491BH_2628300 Phases= 3  Bus1=103128851.1.2.3 Bus2=1140710.1.2.3 Length=72.542400 units=m Spacing=PEC_PEC_23KV_VERT_3P wires=[PEC_477KCMIL_AAC PEC_477KCMIL_AAC PEC_477KCMIL_AAC PEC_#1/0AWG_AAAC ]
New Line.7142K_7143K_2626922 Phases= 2  Bus1=1106216.1.3 Bus2=1106218.1.3 Length=60.655200 units=m Spacing=PEC_PEC_23KV_TRIA_2P wires=[PEC_#1/0AWG_AAAC PEC_#1/0AWG_AAAC PEC_#2AWG_ACSR ]
New Line.U895BH_10CY28_2663805 Phases= 3  Bus1=25885429.1.2.3 Bus2=26803447.1.2.3 Length=80.772000 units=m Spacing=PEC_PEC_23KV_TRIA_3P wires=[PEC_477KCMIL_AAC PEC_477KCMIL_AAC PEC_477KCMIL_AAC PEC_1/0_ACSR ]
New Line.6MG70_6MG71_2653433 Phases= 3  Bus1=25173479.1.2.3 Bus2=25173478.1.2.3 Length=65.532000 units=m Spacing=PEC_PEC_23KV_TRIA_3P wires=[PEC_477KCMIL_AAC PEC_477KCMIL_AAC PEC_477KCMIL_AAC PEC_1/0_ACSR ]
New Line.A473K_A474K_2626976 Phases= 1  Bus1=1105587.1 Bus2=1105582.1 Length=37.185600 units=m Spacing=PEC_PEC_23KV_TRIA_1P wires=[PEC_#4AWG_ACSR PEC_#4AWG_ACSR ]
New Line.U514BH_U533BH_2628324 Phases= 3  Bus1=1140378.1.2.3 Bus2=1140372.1.2.3 Length=65.836800 units=m Spacing=PEC_PEC_23KV_VERT_3P wires=[PEC_477KCMIL_AAC PEC_477KCMIL_AAC PEC_477KCMIL_AAC PEC_#1/0AWG_AAAC ]
New Line.U534BH_U535BH_2628326 Phases= 3  Bus1=1140364.1.2.3 Bus2=1140295.1.2.3 Length=43.281600 units=m Spacing=PEC_PEC_23KV_VERT_3P wires=[PEC_477KCMIL_AAC PEC_477KCMIL_AAC PEC_477KCMIL_AAC PEC_#1/0AWG_ACSR ]
New Line.U374BH_158L52_103374494 Phases= 3  Bus1=103117933.1.2.3 Bus2=103117935.1.2.3 Length=26.956512 units=m Spacing=PEC_PEC_23KV_VERT_3P wires=[PEC_477KCMIL_AAC PEC_477KCMIL_AAC PEC_477KCMIL_AAC PEC_1/0_ACSR ]
...