03_OpenDSS_Circuits/HollySprings_Circuit_Opendss/Loads.DSS
New Load.26281708_3 Phases= 1  Bus1=26281708.3 kV= 13.2043879907621  XFKVA=15.000000 PF= 0.995192003593264  NumCust=2.000000 ! KW= 0 
New Load.25734564_2 Phases= 1  Bus1=25734564.2 kV= 13.2043879907621  XFKVA=25.000000 PF= 0.999995951852119  NumCust=5.000000 ! KW= 0 
New Load.103359063_1 Phases= 1  Bus1=103359063.1 kV= 13.2043879907621  XFKVA=75.000000 PF= 0.999939777925908  NumCust=6.000000 ! KW= 0 
New Load.25734640_3 Phases= 1  Bus1=25734640.3 kV= 13.2043879907621  XFKVA=100.000000 PF= 0.995192003593264  NumCust=5.000000 ! KW= 0 
New Load.25024993_3 Phases= 1  Bus1=25024993.3 kV= 13.2043879907621  XFKVA=25.000000 PF= 0.995192003593264  NumCust=3.000000 ! KW= 0 
New Load.26896053_1 Phases= 1  Bus1=26896053.1 kV= 13.2043879907621  XFKVA=50.000000 PF= 0.999939777925908  NumCust=2.000000 ! KW= 0 
New Load.1140417_3 Phases= 1  Bus1=1140417.3 kV= 13.2043879907621  XFKVA=15.000000 PF= 0.995192003593264  NumCust=1.000000 ! KW= 0 
New Load.1104705_2 Phases= 1  Bus1=1104705.2 kV= 13.2043879907621  XFKVA=15.000000 PF= 0.999995951852119  NumCust=1.000000 ! KW= 0 
New Load.1105218_3 Phases= 1  Bus1=1105218.3 kV= 13.2043879907621  XFKVA=75.000000 PF= 0.995192003593264  NumCust=7.000000 ! KW= 0 
New Load.1106342_3 Phases= 1  Bus1=1106342.3 kV= 13.2043879907621  XFKVA=25.000000 PF= 0.995192003593264  NumCust=1.000000 ! KW= 0 
New Load.25836866_2 Phases= 1  Bus1=25836866.2 kV= 13.2043879907621  XFKVA=25.000000 PF= 0.999995951852119  NumCust=3.000000 ! KW= 0 
New Load.26128165_2 Phases= 1  Bus1=26128165.2 kV= 13.2043879907621  XFKVA=50.000000 PF= 0.999995951852119  NumCust=5.000000 ! KW= 0 
New Load.103537122_1 Phases= 1  Bus1=103537122.1 kV= 13.2043879907621  XFKVA=50.000000 PF= 0.999939777925908  NumCust=2.000000 ! KW= 0 
New Load.103536788_2 Phases= 1  Bus1=103536788.2 kV= 13.2043879907621  XFKVA=75.000000 PF= 0.999995951852119  NumCust=0.000000 enable=F  ! KW= 0 
New Load.1105257_3 Phases= 1  Bus1=1105257.3 kV= 13.2043879907621  XFKVA=50.000000 PF= 0.995192003593264  NumCust=3.000000 ! KW= 0 
New Load.25836865_2 Phases= 1  Bus1=25836865.2 kV= 13.2043879907621  XFKVA=50.000000 PF= 0.999995951852119  NumCust=8.000000 ! KW= 0 
New Load.25490382_2 Phases= 1  Bus1=25490382.2 kV= 13.2043879907621  XFKVA=50.000000 PF= 0.999995951852119  NumCust=6.000000 ! KW= 0 
New Load.1139897_3 Phases= 1  Bus1=1139897.3 kV= 13.2043879907621  XFKVA=50.000000 PF= 0.995192003593264  NumCust=5.000000 ! KW= 0 
New Load.25734551_2 Phases= 1  Bus1=25734551.2 kV= 13.2043879907621  XFKVA=50.000000 PF= 0.999995951852119  NumCust=3.000000 ! KW= 0 
New Load.25734551_3 Phases= 1  Bus1=25734551.3 kV= 13.2043879907621  XFKVA=25.000000 PF= 0.995192003593264  NumCust=3.000000 ! KW= 0 
New Load.103645566_3 Phases= 1  Bus1=103645566.3 kV= 13.2043879907621  XFKVA=75.000000 PF= 0.995192003593264  NumCust=0.000000 enable=F  ! KW= 0 
New Load.1140112_1 Phases= 1  Bus1=1140112.1 kV= 13.2043879907621  XFKVA=50.000000 PF= 0.999939777925908  NumCust=4.000000 ! KW= 0 
New Load.26776418_1 Phases= 1  Bus1=26776418.1 kV= 13.2043879907621  XFKVA=75.000000 PF= 0.999939777925908  NumCust=7.000000 ! KW= 0 
New Load.25734560_2 Phases= 1  Bus1=25734560.2 kV= 13.2043879907621  XFKVA=50.000000 PF= 0.999995951852119  NumCust=6.000000 ! KW= 0 
New Load.1141046_3 Phases= 1  Bus1=1141046.3 kV= 13.2043879907621  XFKVA=50.000000 PF= 0.995192003593264  NumCust=3.000000 ! KW= 0 
New Load.103383301_3 Phases= 1  Bus1=103383301.3 kV= 13.2043879907621  XFKVA=50.000000 PF= 0.995192003593264  NumCust=4.000000 ! KW= 0 
New Load.1106347_3 Phases= 1  Bus1=1106347.3 kV= 13.2043879907621  XFKVA=37.500000 PF= 0.995192003593264  NumCust=4.000000 ! KW= 0 
New Load.1140821_1 Phases= 1  Bus1=1140821.1 kV= 13.2043879907621  XFKVA=25.000000 PF= 0.999939777925908  NumCust=3.000000 ! KW= 0 
New Load.26776411_1 Phases= 1  Bus1=26776411.1 kV= 13.2043879907621  XFKVA=100.000000 PF= 0.999939777925908  NumCust=5.000000 ! KW= 0 
New Load.25734580_3 Phases= 1  Bus1=25734580.3 kV= 13.2043879907621  XFKVA=37.500000 PF= 0.995192003593264  NumCust=4.000000 ! KW= 0 
New Load.26887526_2 Phases= 1  Bus1=26887526.2 kV= 13.2043879907621  XFKVA=50.000000 PF= 0.999995951852119  NumCust=2.000000 ! KW= 0 
New Load.25734606_3 Phases= 1  Bus1=25734606.3 kV= 13.2043879907621  XFKVA=50.000000 PF= 0.995192003593264  NumCust=6.000000 ! KW= 0 
New Load.25885435_1 Phases= 1  Bus1=25885435.1 kV= 13.2043879907621  XFKVA=15.000000 PF= 0.999939777925908  NumCust=1.000000 ! KW= 0 
New Load.25426804_1 Phases= 1  Bus1=25426804.1 kV= 13.2043879907621  XFKVA=100.000000 PF= 0.999939777925908  NumCust=5.000000 ! KW= 0 
New Load.25873711_1 Phases= 1  Bus1=25873711.1 kV= 13.2043879907621  XFKVA=50.000000 PF= 0.999939777925908  NumCust=4.000000 ! KW= 0 
New Load.25234913_1 Phases= 1  Bus1=25234913.1 kV= 13.2043879907621  XFKVA=37.500000 PF= 0.999939777925908  NumCust=3.000000 ! KW= 0 
New Load.26555782_2 Phases= 1  Bus1=26555782.2 kV= 13.2043879907621  XFKVA=50.000000 PF= 0.999995951852119  NumCust=8.000000 ! KW= 0 
...