03_OpenDSS_Circuits/HollySprings_Circuit_Opendss/T4795B23_VLN.Txt

SYMMETRICAL COMPONENT VOLTAGES BY BUS (for 3-phase buses)

Bus                Mag:   V1 (kV)    p.u.     V2 (kV)   %V2/V1    V0 (kV)    %V0/V1

t4795b23_1             13.8      1.045    0.07035       0.51    0.3348     2.427
t4795b23_1_reg        13.63      1.033     0.2042      1.497    0.2045       1.5
103651947              13.6       1.03          0          0         0         0
103527267             4.388     0.3323      4.388        100     4.826       110
26991515              4.405     0.3336      4.405        100     4.846       110
26991512              4.405     0.3336      4.405        100     4.846       110
103125599             4.402     0.3334      4.402        100     4.842       110
27136877              4.402     0.3334      4.402        100     4.842       110
103048714             4.389     0.3324      4.389        100     4.828       110
103048715             4.389     0.3324      4.389        100     4.828       110
103543472             4.395     0.3329      4.395        100     4.835       110
t4795b23_10000049     13.62      1.032          0          0         0         0
103265150             4.387     0.3323      4.387        100     4.826       110
103265149             4.387     0.3323      4.387        100     4.826       110
27136728              4.377     0.3315      4.377        100     4.815       110
27136701              4.377     0.3315      4.377        100     4.815       110
103121474             13.64      1.033     0.2154       1.58    0.2344     1.718
103121475             13.64      1.033     0.2154       1.58    0.2344     1.718
103041881             13.63      1.032      0.213      1.562    0.2294     1.683
103413875             13.65      1.034          0          0         0         0
103543441             13.62      1.032          0          0         0         0
103543459             4.395     0.3329      4.395        100     4.835       110
27136777              4.393     0.3327      4.393        100     4.832       110
27136765              4.393     0.3327      4.393        100     4.832       110
27136666              4.385     0.3321      4.385        100     4.824       110
27136663              4.385     0.3321      4.385        100     4.824       110
26999465              4.391     0.3326      4.391        100      4.83       110
26999474              4.391     0.3325      4.391        100      4.83       110
25631624              13.61      1.031     0.2276      1.672    0.2568     1.887
26999871              4.384      0.332      4.384        100     4.822       110
25429365              4.395     0.3329      4.395        100     4.835       110
27135962              4.395     0.3329      4.395        100     4.835       110
27000196              4.385     0.3321      4.385        100     4.823       110
27000199              4.385     0.3321      4.385        100     4.823       110
25631627              13.61      1.031     0.2276      1.673     0.257     1.889
26999873              4.378     0.3315      4.378        100     4.816       110
26709862              13.61      1.031     0.2266      1.665    0.2543     1.869
27000178              4.379     0.3316      4.379        100     4.817       110
103048712             4.401     0.3333      4.401        100     4.841       110
103048711             4.401     0.3333      4.401        100     4.841       110
103626617             4.386     0.3322      4.386        100     4.825       110
103626615             4.386     0.3322      4.386        100     4.825       110
25360359              13.64      1.033     0.2158      1.582    0.2349     1.722
27136932              4.549     0.3446      4.549        100     4.549       100
27136887              4.394     0.3328      4.394        100     4.833       110
27136890              4.394     0.3327      4.394        100     4.833       110
26999477              13.61      1.031     0.2185      1.606    0.2316     1.702
26755991               13.6       1.03          0          0         0         0
103121256             4.406     0.3337      4.406        100     4.847       110
27137027              13.66      1.034          0          0         0         0
27136524              4.397      0.333      4.397        100     4.837       110
27136494              4.397      0.333      4.397        100     4.837       110
103121503             13.64      1.033     0.2154       1.58    0.2344     1.718
27136946              4.402     0.3334      4.402        100     4.842       110
27136721              4.375     0.3313      4.375        100     4.812       110
27137278              4.375     0.3313      4.375        100     4.812       110
1140122               13.61      1.031     0.2201      1.617    0.2342      1.72
26999161              4.402     0.3334      4.402        100     4.843       110
103537136             13.64      1.033          0          0         0         0
103536814             4.401     0.3333      4.401        100     4.841       110
27000186              4.408     0.3338      4.408        100     4.849       110
27000189              4.408     0.3338      4.408        100     4.849       110
26999354              4.406     0.3337      4.406        100     4.847       110
26999350              4.406     0.3337      4.406        100     4.846       110
103651945             13.64      1.033          0          0         0         0
103529698             4.399     0.3332      4.399        100     4.839       110
103016792             13.62      1.032     0.2068      1.518    0.2085     1.531
103016797             13.62      1.032     0.2068      1.518    0.2085     1.531
27000202              4.384      0.332      4.384        100     4.823       110
27000205              4.384      0.332      4.384        100     4.822       110
103016794             13.62      1.032     0.2068      1.518    0.2085     1.531
103294963             13.62      1.032     0.2068      1.518    0.2085     1.531
103649883                 0          0          0          0         0         0
103649893                 0          0          0          0         0         0
103294961             13.62      1.032     0.2068      1.518    0.2085     1.531
103016793             13.62      1.032     0.2068      1.518    0.2085     1.531
27000112              4.379     0.3316      4.379        100     4.817       110
27000204              4.379     0.3316      4.379        100     4.817       110
27146931              13.62      1.032     0.2066      1.516     0.207      1.52
27146927              13.62      1.032     0.2066      1.516     0.207      1.52
27136875              4.402     0.3334      4.402        100     4.843       110
27136871              4.402     0.3334      4.402        100     4.843       110
27137075              4.393     0.3327      4.393        100     4.833       110
27137078              4.393     0.3327      4.393        100     4.833       110
27136948              4.402     0.3334      4.402        100     4.842       110
27136951              4.402     0.3334      4.402        100     4.842       110
103645571             4.399     0.3332      4.399        100     4.839       110
103297397              13.6       1.03          0          0         0         0
103265168             4.387     0.3322      4.387        100     4.825       110
27136908              4.401     0.3333      4.401        100     4.841       110
103125604               4.4     0.3333        4.4        100      4.84       110
26999484              4.363     0.3304      4.363        100     4.799       110
26999491              4.362     0.3303      4.362        100     4.798       110
27137090              4.394     0.3328      4.394        100     4.834       110
27137096              4.541     0.3439      4.541        100     4.541       100
103359455             4.399     0.3332      4.399        100     4.839       110
103359055             4.399     0.3332      4.399        100     4.839       110
103631333             4.362     0.3303      4.362        100     4.798       110
103631332             4.362     0.3303      4.362        100     4.798       110
27136651              4.388     0.3324      4.388        100     4.827       110
27136656              4.388     0.3324      4.388        100     4.827       110
27136889              4.394     0.3327      4.394        100     4.833       110
27136895              4.393     0.3327      4.393        100     4.833       110
27137264              4.375     0.3314      4.375        100     4.813       110
27136720              4.375     0.3313      4.375        100     4.812       110
26999233              4.404     0.3335      4.404        100     4.844       110
27136637              4.404     0.3335      4.404        100     4.844       110
103537162             4.395     0.3329      4.395        100     4.835       110
103537163             4.395     0.3329      4.395        100     4.835       110
25631622              13.61      1.031     0.2276      1.672    0.2568     1.887
26999859              4.409     0.3339      4.409        100     4.849       110
1104735               13.52      1.024          0          0         0         0
103631344             4.362     0.3303      4.362        100     4.798       110
26999348              4.405     0.3336      4.405        100     4.846       110
103079725             4.405     0.3336      4.405        100     4.846       110
27137072              4.394     0.3328      4.394        100     4.833       110
27137083              4.394     0.3327      4.394        100     4.833       110
27000169              4.408     0.3338      4.408        100     4.848       110
27000166              4.408     0.3338      4.408        100     4.848       110
27000182              4.408     0.3339      4.408        100     4.849       110
27000185              4.408     0.3339      4.408        100     4.849       110
26859784              13.62      1.032     0.2066      1.516     0.207      1.52
103048756             4.397      0.333      4.397        100     4.837       110
26999169              4.401     0.3333      4.401        100     4.841       110
26999207              4.401     0.3333      4.401        100     4.841       110
103294683             4.396     0.3329      4.396        100     4.836       110
103294689             4.396     0.3329      4.396        100     4.836       110
26999268              4.374     0.3313      4.374        100     4.812       110
26999270              4.372     0.3311      4.372        100     4.809       110
26709736              13.61      1.031     0.2273      1.671    0.2561     1.882
27000190              4.408     0.3339      4.408        100     4.849       110
27136678              4.386     0.3322      4.386        100     4.825       110
27136675              4.386     0.3322      4.386        100     4.824       110
27136688              4.403     0.3335      4.403        100     4.844       110
27136691              4.403     0.3335      4.403        100     4.843       110
103651943             13.63      1.032          0          0         0         0
103527273             4.395     0.3328      4.395        100     4.834       110
27136905              4.393     0.3327      4.393        100     4.832       110
27136894              4.393     0.3327      4.393        100     4.832       110
26999493               4.36     0.3302       4.36        100     4.796       110
26999502               4.36     0.3302       4.36        100     4.796       110
103125252               4.4     0.3332        4.4        100      4.84       110
27136522              13.62      1.032     0.2067      1.518    0.2078     1.526
26999475              4.391     0.3325      4.391        100      4.83       110
26999472              4.391     0.3325      4.391        100      4.83       110
26999340              4.386     0.3322      4.386        100     4.825       110
26999336              4.386     0.3322      4.386        100     4.825       110
26303558              4.393     0.3327      4.393        100     4.832       110
27136831              4.393     0.3327      4.393        100     4.832       110
103537165             4.395     0.3329      4.395        100     4.835       110
103537166             4.395     0.3329      4.395        100     4.835       110
103359068             4.394     0.3328      4.394        100     4.834       110
103359059             4.394     0.3328      4.394        100     4.834       110
103321744             4.396     0.3329      4.396        100     4.835       110
103307204             4.396     0.3329      4.396        100     4.835       110
103626595             4.362     0.3303      4.362        100     4.798       110
103626605             4.362     0.3303      4.362        100     4.798       110
26999446              4.391     0.3325      4.391        100      4.83       110
26999458              4.391     0.3325      4.391        100      4.83       110
26999514              4.365     0.3306      4.365        100     4.801       110
103079711             4.365     0.3305      4.365        100     4.801       110
26999408              4.402     0.3333      4.402        100     4.842       110
26999177              4.402     0.3333      4.402        100     4.842       110
27136584              4.399     0.3332      4.399        100     4.839       110
27136581                4.4     0.3332        4.4        100      4.84       110
27136769              8.931     0.6764      4.829      54.07     4.513     50.53
27136766              4.392     0.3326      4.392        100     4.831       110
103125594             4.402     0.3334      4.402        100     4.842       110
27136870              4.402     0.3334      4.402        100     4.842       110
26999713              4.404     0.3336      4.404        100     4.845       110
27000214              4.404     0.3336      4.404        100     4.845       110
103626597             4.386     0.3322      4.386        100     4.825       110
103626591             4.386     0.3322      4.386        100     4.825       110
27136779              4.393     0.3327      4.393        100     4.832       110
27136776              4.393     0.3327      4.393        100     4.832       110
27136944                4.4     0.3332        4.4        100      4.84       110
27136941                4.4     0.3332        4.4        100      4.84       110
1105109               13.61      1.031     0.2213      1.626    0.2372     1.743
26999387              4.404     0.3335      4.404        100     4.844       110
26999144              4.385     0.3321      4.385        100     4.824       110
26999335              4.531     0.3432      4.531        100     4.531       100
27136939                4.4     0.3332        4.4        100      4.84       110
27136933                4.4     0.3332        4.4        100      4.84       110
27136896              4.393     0.3327      4.393        100     4.833       110
27136891              4.393     0.3327      4.393        100     4.833       110
103672955             13.62      1.032          0          0         0         0
103543473             4.395     0.3329      4.395        100     4.835       110
27136567                4.4     0.3333        4.4        100      4.84       110
27136564                4.4     0.3333        4.4        100      4.84       110
103383295             4.387     0.3322      4.387        100     4.825       110
103383281             4.387     0.3322      4.387        100     4.825       110
103294836             13.62      1.032     0.2067      1.518    0.2088     1.533
103294834             13.62      1.032     0.2067      1.518    0.2088     1.533
26999194                4.4     0.3332        4.4        100      4.84       110
26999191                4.4     0.3332        4.4        100      4.84       110
26999864              4.378     0.3316      4.378        100     4.816       110
26999861              4.378     0.3316      4.378        100     4.816       110
103462490              4.38     0.3317       4.38        100     4.818       110
103462488              4.38     0.3317       4.38        100     4.818       110
26999928               4.38     0.3317       4.38        100     4.818       110
26999931               4.38     0.3317       4.38        100     4.818       110
103462491             4.379     0.3316      4.379        100     4.816       110
103462489             4.379     0.3316      4.379        100     4.816       110
26999204                4.4     0.3332        4.4        100      4.84       110
26999197                4.4     0.3332        4.4        100     4.839       110
103016838               4.4     0.3333        4.4        100      4.84       110
103016839               4.4     0.3332        4.4        100      4.84       110
27136690              4.403     0.3335      4.403        100     4.843       110
27136693              4.403     0.3335      4.403        100     4.843       110
25631623              13.61      1.031     0.2276      1.672    0.2568     1.887
26999865              4.378     0.3316      4.378        100     4.816       110
26999512              4.365     0.3306      4.365        100     4.802       110
...
t4795b23_10000048      13.6       1.03          0          0         0         0
t4795b23_10000047     13.64      1.033          0          0         0         0
27136912              4.393     0.3327      4.393        100     4.832       110
27136904              4.393     0.3327      4.393        100     4.832       110
103529696             4.395     0.3329      4.395        100     4.835       110
t4795b23_10000046     13.63      1.032          0          0         0         0
27136585              4.388     0.3323      4.388        100     4.826       110
103125253             13.62      1.032     0.2067      1.518    0.2078     1.526
26999449              4.387     0.3322      4.387        100     4.825       110
26999463              4.387     0.3322      4.387        100     4.825       110
103294677             13.62      1.032     0.2068      1.518    0.2086     1.531
103294685             4.396     0.3329      4.396        100     4.836       110
26999389              4.404     0.3335      4.404        100     4.844       110
26999392              4.404     0.3335      4.404        100     4.844       110
26999384               4.38     0.3317       4.38        100     4.818       110
26999379              4.379     0.3317      4.379        100     4.817       110
103079630             4.362     0.3303      4.362        100     4.798       110
103072060             4.362     0.3303      4.362        100     4.798       110
27136767              4.392     0.3326      4.392        100     4.831       110
27136764              4.392     0.3326      4.392        100     4.831       110
26999456              4.391     0.3326      4.391        100      4.83       110
26999453              4.391     0.3326      4.391        100      4.83       110
26999448              4.387     0.3322      4.387        100     4.825       110
26999450              4.387     0.3322      4.387        100     4.825       110
103249215             4.394     0.3328      4.394        100     4.834       110
103249214             4.394     0.3328      4.394        100     4.834       110
26999367              4.368     0.3308      4.368        100     4.805       110
26999346              4.366     0.3307      4.366        100     4.803       110
26999374               4.38     0.3317       4.38        100     4.818       110
26999927               4.38     0.3317       4.38        100     4.818       110
103036414             13.62      1.032     0.2066      1.516     0.207      1.52
103036415             13.62      1.032     0.2067      1.518    0.2081     1.528
26999507              4.365     0.3306      4.365        100     4.802       110
26999505              4.365     0.3306      4.365        100     4.802       110
103537208             4.395     0.3329      4.395        100     4.835       110
103537209             4.395     0.3329      4.395        100     4.835       110
103294850             13.62      1.032     0.2067      1.518    0.2088     1.533
103294847             13.63      1.032          0          0         0         0
103571154             4.396     0.3329      4.396        100     4.835       110
103571149             13.63      1.032          0          0         0         0
27136854              4.403     0.3335      4.403        100     4.844       110
27136849              4.403     0.3334      4.403        100     4.843       110
26999492              4.362     0.3303      4.362        100     4.798       110
26999489              4.361     0.3303      4.361        100     4.797       110
26999856              4.384      0.332      4.384        100     4.822       110
26999853              4.384      0.332      4.384        100     4.822       110
103383283             4.387     0.3322      4.387        100     4.825       110
103384998             4.387     0.3322      4.387        100     4.825       110
27000198              4.385     0.3321      4.385        100     4.823       110
27000201              4.384      0.332      4.384        100     4.823       110
26999870              4.383      0.332      4.383        100     4.822       110
26999867              4.383      0.332      4.383        100     4.821       110
103249211             4.394     0.3328      4.394        100     4.834       110
103249210             4.394     0.3328      4.394        100     4.834       110
26999272              4.405     0.3336      4.405        100     4.845       110
26999295              4.405     0.3336      4.405        100     4.845       110
26999351              4.406     0.3337      4.406        100     4.846       110
26999349              4.405     0.3336      4.405        100     4.846       110
26999369              4.381     0.3318      4.381        100     4.819       110
26999371               4.38     0.3317       4.38        100     4.818       110
103536805             4.401     0.3333      4.401        100     4.841       110
103536806             4.401     0.3333      4.401        100     4.841       110
27136493              4.397      0.333      4.397        100     4.837       110
27136496              4.397      0.333      4.397        100     4.836       110
26999516              4.365     0.3306      4.365        100     4.801       110
26999513              4.365     0.3306      4.365        100     4.801       110
26801550              13.62      1.032     0.2087      1.532    0.2187     1.605
27137085              4.394     0.3328      4.394        100     4.833       110
103249208             4.394     0.3328      4.394        100     4.834       110
103249207             4.394     0.3328      4.394        100     4.834       110
103537160             4.395     0.3329      4.395        100     4.835       110
103537161             4.395     0.3329      4.395        100     4.835       110
103125601             4.402     0.3334      4.402        100     4.843       110
27136876              4.402     0.3334      4.402        100     4.842       110
27136865              4.403     0.3334      4.403        100     4.843       110
27136868              4.402     0.3334      4.402        100     4.843       110
27136694              4.403     0.3334      4.403        100     4.843       110
27136697              4.403     0.3334      4.403        100     4.843       110
26999148              4.384     0.3321      4.384        100     4.823       110
26999201              4.384      0.332      4.384        100     4.823       110
25734597              8.932     0.6764      4.829      54.07     4.513     50.53
27136659              8.931     0.6764      4.829      54.07     4.513     50.53
26999486               4.36     0.3302       4.36        100     4.796       110
26999495               4.36     0.3302       4.36        100     4.796       110
26999294              4.405     0.3336      4.405        100     4.845       110
26999364              4.405     0.3336      4.405        100     4.845       110
103121504             13.64      1.033     0.2154       1.58    0.2344     1.718
103121242             4.394     0.3328      4.394        100     4.834       110
103249174             13.62      1.032          0          0         0         0
103400446             4.395     0.3328      4.395        100     4.834       110
26999712              4.404     0.3336      4.404        100     4.845       110
26999714              4.404     0.3336      4.404        100     4.845       110
26999165              4.402     0.3334      4.402        100     4.843       110
26999168              4.402     0.3334      4.402        100     4.843       110
26999438              4.385     0.3321      4.385        100     4.824       110
26999462              4.531     0.3432      4.531        100     4.531       100
27000167              4.408     0.3338      4.408        100     4.848       110
27000188              4.555     0.3449      4.555        100     4.555       100
27137098              4.394     0.3328      4.394        100     4.834       110
27137095              4.394     0.3328      4.394        100     4.834       110
25734523              13.61      1.031     0.2252      1.655    0.2497     1.834
26999358              4.407     0.3338      4.407        100     4.848       110
27137258              4.375     0.3313      4.375        100     4.812       110
27137261              4.375     0.3313      4.375        100     4.812       110
27136705              4.376     0.3314      4.376        100     4.813       110
27136702              4.376     0.3314      4.376        100     4.813       110
27136863              4.403     0.3334      4.403        100     4.843       110
27136866              4.403     0.3334      4.403        100     4.843       110
25734577              4.389     0.3324      4.389        100     4.827       110
27136653              4.388     0.3324      4.388        100     4.827       110
27136696              4.403     0.3334      4.403        100     4.843       110
26999361              4.403     0.3334      4.403        100     4.843       110
26999482              4.391     0.3326      4.391        100      4.83       110
26999455              4.391     0.3326      4.391        100      4.83       110
26999333              4.386     0.3322      4.386        100     4.824       110
26999330              4.386     0.3322      4.386        100     4.824       110
103383287             4.387     0.3323      4.387        100     4.826       110
103383296             4.387     0.3322      4.387        100     4.826       110
27146930              13.62      1.032     0.2066      1.516     0.207      1.52
27146926              13.62      1.032     0.2066      1.516     0.207      1.52
27146929              13.62      1.032     0.2066      1.516     0.207      1.52
27137101              4.392     0.3327      4.392        100     4.832       110
27137111              4.392     0.3327      4.392        100     4.832       110
103249218             4.394     0.3328      4.394        100     4.834       110
103249217             4.394     0.3328      4.394        100     4.834       110
27146920              13.62      1.032     0.2067      1.518    0.2081     1.528
27146923              13.62      1.032     0.2067      1.518    0.2081     1.528
27146922              13.62      1.032     0.2067      1.518    0.2081     1.528
27146921              13.62      1.032     0.2067      1.518    0.2081     1.528
26999844              4.408     0.3339      4.408        100     4.849       110
26999858              4.555      0.345      4.555        100     4.555       100
27146928              13.62      1.032     0.2066      1.516     0.207      1.52
103294844             13.61       1.03          0          0         0         0
26999174              4.402     0.3334      4.402        100     4.842       110
26999163              4.401     0.3333      4.401        100     4.841       110
27146925              13.62      1.032     0.2067      1.518    0.2081     1.528
27146924              13.62      1.032     0.2067      1.518    0.2081     1.528
27136862              4.404     0.3335      4.404        100     4.844       110
27136858              4.403     0.3335      4.403        100     4.844       110
27000114              4.379     0.3316      4.379        100     4.817       110
27000111              4.379     0.3316      4.379        100     4.817       110
103651984              13.6       1.03          0          0         0         0
103645567             4.388     0.3323      4.388        100     4.827       110
27137077              4.393     0.3327      4.393        100     4.833       110
27137080              4.393     0.3327      4.393        100     4.833       110
27136845              4.402     0.3334      4.402        100     4.843       110
27136873              4.402     0.3334      4.402        100     4.843       110
27000173              4.408     0.3338      4.408        100     4.849       110
27000170              4.408     0.3338      4.408        100     4.849       110
103672968             4.395     0.3329      4.395        100     4.835       110
26999151              4.384      0.332      4.384        100     4.823       110
26999153              4.384      0.332      4.384        100     4.822       110
26999442              4.385     0.3321      4.385        100     4.824       110
26999439              4.385     0.3321      4.385        100     4.824       110
27136638              4.404     0.3335      4.404        100     4.844       110
27136635              4.403     0.3335      4.403        100     4.844       110
...