03_OpenDSS_Circuits/HollySprings_Circuit_Opendss/T4795B23_VLN_Node.Txt

LINE-GROUND and LINE-LINE VOLTAGES BY BUS & NODE

Bus               Node    VLN (kV)   Angle      pu     Base kV    Node-Node   VLL (kV)  Angle      pu

T4795B23_1 ...... 1       13.546 /_   -3.0    1.0259    22.870        1-2     23.925 /_   27.3    1.0461
   -              2       13.998 /_ -123.6    1.0601    22.870        2-3     23.777 /_  -92.4    1.0397
   -              3       13.851 /_  119.2     1.049    22.870        3-1     23.981 /_  147.7    1.0486
T4795B23_1_REG .. 1       13.646 /_   -3.2    1.0335    22.870        1-2     23.719 /_   26.5    1.0371
   -              2       13.661 /_ -123.8    1.0346    22.870        2-3      23.27 /_  -92.4    1.0175
   -              3       13.602 /_  119.0    1.0302    22.870        3-1     23.857 /_  148.0    1.0432
103651947 ....... 3       13.602 /_  118.9    1.0301    22.870
103527267 ....... 1      0.43879 /_  118.9  0.033231    22.870        1-2 8.0389E-017 /_  -45.0 3.515E-018
   -              2      0.43879 /_  118.9  0.033231    22.870        2-3     13.162 /_  -61.1   0.57553
   -              3       13.601 /_  118.9    1.0301    22.870        3-1     13.162 /_  118.9   0.57553
26991515 ........ 1      0.44057 /_ -124.4  0.033367    22.870        1-2     13.216 /_   55.6   0.57787
   -              2       13.656 /_ -124.4    1.0343    22.870        2-3     13.216 /_ -124.4   0.57787
   -              3      0.44057 /_ -124.4  0.033367    22.870        3-1 6.3553E-017 /_ -116.6 2.7789E-018
26991512 ........ 1      0.44056 /_ -124.4  0.033365    22.870        1-2     13.216 /_   55.6   0.57785
   -              2       13.656 /_ -124.4    1.0342    22.870        2-3     13.216 /_ -124.4   0.57785
   -              3      0.44056 /_ -124.4  0.033365    22.870        3-1 8.5265E-017 /_    0.0 3.7283E-018
103125599 ....... 1      0.44019 /_ -124.3  0.033338    22.870        1-2     13.206 /_   55.7   0.57743
   -              2       13.646 /_ -124.3    1.0335    22.870        2-3     13.206 /_ -124.3   0.57743
   -              3      0.44019 /_ -124.3  0.033338    22.870        3-1 2.3437E-016 /_ -166.0 1.0248E-017
27136877 ........ 1      0.44017 /_ -124.3  0.033336    22.870        1-2     13.205 /_   55.7    0.5774
   -              2       13.645 /_ -124.3    1.0334    22.870        2-3     13.205 /_ -124.3    0.5774
   -              3      0.44017 /_ -124.3  0.033336    22.870        3-1 1.9895E-016 /_  180.0 8.6993E-018
103048714 ....... 1      0.43895 /_  119.0  0.033243    22.870        1-2 8.0389E-017 /_   45.0 3.515E-018
   -              2      0.43895 /_  119.0  0.033243    22.870        2-3     13.166 /_  -61.0   0.57568
   -              3       13.605 /_  119.0    1.0304    22.870        3-1     13.166 /_  119.0   0.57568
103048715 ....... 1      0.43895 /_  119.0  0.033243    22.870        1-2 5.6843E-017 /_   90.0 2.4855E-018
   -              2      0.43895 /_  119.0  0.033243    22.870        2-3     13.166 /_  -61.0   0.57568
   -              3       13.605 /_  119.0    1.0304    22.870        3-1     13.166 /_  119.0   0.57568
103543472 ....... 1       13.625 /_   -3.3    1.0319    22.870        1-2     13.185 /_   -3.3   0.57653
   -              2      0.43959 /_   -3.3  0.033292    22.870        2-3 1.1507E-016 /_    8.9 5.0313E-018
   -              3      0.43959 /_   -3.3  0.033292    22.870        3-1     13.185 /_  176.7   0.57653
T4795B23_10000049 1       13.625 /_   -3.3    1.0319    22.870
103265150 ....... 1      0.43875 /_  118.9  0.033229    22.870        1-2 6.3553E-017 /_  -63.4 2.7789E-018
   -              2      0.43875 /_  118.9  0.033229    22.870        2-3     13.161 /_  -61.1   0.57548
   -              3         13.6 /_  118.9      1.03    22.870        3-1     13.161 /_  118.9   0.57548
103265149 ....... 1      0.43877 /_  118.9   0.03323    22.870        1-2 5.6843E-017 /_    0.0 2.4855E-018
   -              2      0.43877 /_  118.9   0.03323    22.870        2-3     13.162 /_  -61.1   0.57551
   -              3       13.601 /_  118.9      1.03    22.870        3-1     13.162 /_  118.9   0.57551
27136728 ........ 1       13.569 /_   -3.8    1.0277    22.870        1-2     13.132 /_   -3.8   0.57418
   -              2      0.43776 /_   -3.8  0.033153    22.870        2-3 5.6843E-017 /_  180.0 2.4855E-018
   -              3      0.43776 /_   -3.8  0.033153    22.870        3-1     13.132 /_  176.2   0.57418
27136701 ........ 1       13.569 /_   -3.8    1.0277    22.870        1-2     13.131 /_   -3.8   0.57417
   -              2       0.4378 /_   -3.8  0.033156    22.870        2-3 7.5532E-017 /_ -138.8 3.3027E-018
   -              3       0.4378 /_   -3.8  0.033156    22.870        3-1     13.131 /_  176.2   0.57417
103121474 ....... 1       13.623 /_   -3.5    1.0317    22.870        1-2     23.728 /_   26.1    1.0375
   -              2       13.659 /_ -124.4    1.0345    22.870        2-3     23.262 /_  -92.8    1.0172
   -              3       13.647 /_  118.8    1.0335    22.870        3-1     23.886 /_  147.6    1.0444
103121475 ....... 1       13.623 /_   -3.5    1.0317    22.870        1-2     23.728 /_   26.1    1.0375
   -              2       13.659 /_ -124.4    1.0345    22.870        2-3     23.262 /_  -92.8    1.0172
   -              3       13.647 /_  118.8    1.0335    22.870        3-1     23.886 /_  147.6    1.0444
103041881 ....... 1       13.619 /_   -3.5    1.0314    22.870        1-2     23.712 /_   26.1    1.0368
   -              2       13.654 /_ -124.3    1.0341    22.870        2-3     23.253 /_  -92.8    1.0168
   -              3       13.632 /_  118.8    1.0324    22.870        3-1      23.87 /_  147.6    1.0437
103413875 ....... 2       13.653 /_ -124.3     1.034    22.870
103543441 ....... 1       13.625 /_   -3.3    1.0319    22.870
103543459 ....... 1       13.625 /_   -3.3    1.0319    22.870        1-2     13.185 /_   -3.3   0.57653
   -              2      0.43951 /_   -3.3  0.033286    22.870        2-3 3.0213E-016 /_  138.8 1.3211E-017
   -              3      0.43951 /_   -3.3  0.033286    22.870        3-1     13.185 /_  176.7   0.57653
27136777 ........ 1       13.618 /_   -3.5    1.0314    22.870        1-2     13.179 /_   -3.5   0.57626
   -              2       0.4393 /_   -3.5   0.03327    22.870        2-3 2.025E-016 /_   90.0 8.8546E-018
   -              3       0.4393 /_   -3.5   0.03327    22.870        3-1     13.179 /_  176.5   0.57626
27136765 ........ 1       13.618 /_   -3.5    1.0314    22.870        1-2     13.179 /_   -3.5   0.57626
   -              2      0.43932 /_   -3.5  0.033272    22.870        2-3 1.2142E-016 /_  159.4 5.309E-018
   -              3      0.43932 /_   -3.5  0.033272    22.870        3-1     13.179 /_  176.5   0.57626
27136666 ........ 1      0.43855 /_  118.8  0.033214    22.870        1-2 6.3553E-017 /_  -63.4 2.7789E-018
   -              2      0.43855 /_  118.8  0.033214    22.870        2-3     13.155 /_  -61.2   0.57522
   -              3       13.594 /_  118.8    1.0295    22.870        3-1     13.155 /_  118.8   0.57522
27136663 ........ 1      0.43855 /_  118.8  0.033213    22.870        1-2 1.1369E-016 /_   90.0 4.971E-018
   -              2      0.43855 /_  118.8  0.033213    22.870        2-3     13.155 /_  -61.2   0.57521
   -              3       13.594 /_  118.8    1.0295    22.870        3-1     13.155 /_  118.8   0.57521
26999465 ........ 1      0.43912 /_ -124.7  0.033256    22.870        1-2     13.174 /_   55.3   0.57602
   -              2       13.613 /_ -124.7    1.0309    22.870        2-3     13.174 /_ -124.7   0.57602
   -              3      0.43912 /_ -124.7  0.033256    22.870        3-1 3.1264E-016 /_  180.0 1.367E-017
26999474 ........ 1      0.43913 /_ -124.7  0.033258    22.870        1-2     13.173 /_   55.3   0.57598
   -              2       13.612 /_ -124.7    1.0309    22.870        2-3     13.173 /_ -124.7   0.57598
   -              3      0.43913 /_ -124.7  0.033258    22.870        3-1 5.6843E-017 /_    0.0 2.4855E-018
25631624 ........ 1       13.574 /_   -3.8     1.028    22.870        1-2     23.695 /_   25.5    1.0361
   -              2       13.595 /_ -125.2    1.0296    22.870        2-3     23.183 /_  -93.4    1.0137
   -              3       13.667 /_  118.3    1.0351    22.870        3-1     23.834 /_  147.1    1.0421
26999871 ........ 1      0.43837 /_ -125.2    0.0332    22.870        1-2     13.151 /_   54.8   0.57504
   -              2        13.59 /_ -125.2    1.0292    22.870        2-3     13.151 /_ -125.2   0.57504
   -              3      0.43837 /_ -125.2    0.0332    22.870        3-1 2.558E-016 /_  180.0 1.1185E-017
25429365 ........ 1       13.625 /_   -3.3    1.0319    22.870        1-2     13.185 /_   -3.3   0.57654
   -              2       0.4396 /_   -3.3  0.033293    22.870        2-3 7.816E-017 /_  -90.0 3.4176E-018
   -              3       0.4396 /_   -3.3  0.033293    22.870        3-1     13.185 /_  176.7   0.57654
27135962 ........ 1       13.625 /_   -3.3    1.0319    22.870        1-2     13.185 /_   -3.3   0.57653
   -              2      0.43959 /_   -3.3  0.033293    22.870        2-3 7.1054E-017 /_  -36.9 3.1069E-018
   -              3      0.43959 /_   -3.3  0.033293    22.870        3-1     13.185 /_  176.7   0.57653
27000196 ........ 1      0.43846 /_ -125.2  0.033207    22.870        1-2     13.154 /_   54.8   0.57516
   -              2       13.592 /_ -125.2    1.0294    22.870        2-3     13.154 /_ -125.2   0.57516
   -              3      0.43846 /_ -125.2  0.033207    22.870        3-1 2.0691E-016 /_  164.1 9.0474E-018
27000199 ........ 1      0.43846 /_ -125.2  0.033206    22.870        1-2     13.154 /_   54.8   0.57516
   -              2       13.592 /_ -125.2    1.0294    22.870        2-3     13.154 /_ -125.2   0.57516
   -              3      0.43846 /_ -125.2  0.033206    22.870        3-1 1.9895E-016 /_  180.0 8.6993E-018
25631627 ........ 1       13.574 /_   -3.8     1.028    22.870        1-2     23.695 /_   25.5    1.0361
   -              2       13.595 /_ -125.2    1.0296    22.870        2-3     23.183 /_  -93.4    1.0137
   -              3       13.667 /_  118.3    1.0351    22.870        3-1     23.834 /_  147.1    1.0421
26999873 ........ 1       13.571 /_   -3.8    1.0278    22.870        1-2     13.133 /_   -3.8   0.57426
   -              2      0.43782 /_   -3.8  0.033158    22.870        2-3 6.8981E-017 /_ -145.5 3.0162E-018
   -              3      0.43782 /_   -3.8  0.033158    22.870        3-1     13.133 /_  176.2   0.57426
26709862 ........ 1       13.577 /_   -3.8    1.0282    22.870        1-2     23.696 /_   25.5    1.0361
   -              2       13.597 /_ -125.2    1.0298    22.870        2-3     23.187 /_  -93.4    1.0139
   -              3       13.665 /_  118.3    1.0349    22.870        3-1     23.835 /_  147.1    1.0422
27000178 ........ 1       13.575 /_   -3.8    1.0281    22.870        1-2     13.137 /_   -3.8   0.57443
   -              2       0.4379 /_   -3.8  0.033164    22.870        2-3 2.5935E-016 /_  131.1 1.134E-017
   -              3       0.4379 /_   -3.8  0.033164    22.870        3-1     13.137 /_  176.2   0.57443
103048712 ....... 1       0.4402 /_ -123.9  0.033338    22.870        1-2     13.203 /_   56.1   0.57733
   -              2       13.644 /_ -123.9    1.0333    22.870        2-3     13.203 /_ -123.9   0.57733
   -              3       0.4402 /_ -123.9  0.033338    22.870        3-1          0 /_    0.0         0
103048711 ....... 1       0.4402 /_ -123.9  0.033338    22.870        1-2     13.203 /_   56.1   0.57733
   -              2       13.644 /_ -123.9    1.0333    22.870        2-3     13.203 /_ -123.9   0.57733
   -              3       0.4402 /_ -123.9  0.033338    22.870        3-1 1.5306E-016 /_   21.8 6.6924E-018
103626617 ....... 1      0.43862 /_ -125.2  0.033219    22.870        1-2     13.159 /_   54.8   0.57537
   -              2       13.597 /_ -125.2    1.0298    22.870        2-3     13.159 /_ -125.2   0.57537
   -              3      0.43862 /_ -125.2  0.033219    22.870        3-1 2.0691E-016 /_  164.1 9.0474E-018
103626615 ....... 1      0.43863 /_ -125.2  0.033219    22.870        1-2     13.159 /_   54.8   0.57537
   -              2       13.597 /_ -125.2    1.0298    22.870        2-3     13.159 /_ -125.2   0.57537
   -              3      0.43863 /_ -125.2  0.033219    22.870        3-1 2.0495E-016 /_  146.3 8.9616E-018
25360359 ........ 1       13.622 /_   -3.5    1.0317    22.870        1-2     23.729 /_   26.1    1.0375
   -              2       13.659 /_ -124.4    1.0344    22.870        2-3     23.262 /_  -92.8    1.0171
   -              3       13.648 /_  118.8    1.0336    22.870        3-1     23.886 /_  147.6    1.0444
27136932 ........ 1            0 /_    0.0         0    22.870        1-2          0 /_    0.0         0
   -              2            0 /_    0.0         0    22.870        2-3     13.648 /_  -61.2   0.59677
   -              3       13.648 /_  118.8    1.0336    22.870        3-1     13.648 /_  118.8   0.59677
27136887 ........ 1       13.622 /_   -3.5    1.0316    22.870        1-2     13.182 /_   -3.5   0.57639
   -              2      0.43945 /_   -3.5  0.033281    22.870        2-3          0 /_    0.0         0
   -              3      0.43945 /_   -3.5  0.033281    22.870        3-1     13.182 /_  176.5   0.57639
27136890 ........ 1        13.62 /_   -3.5    1.0315    22.870        1-2     13.181 /_   -3.5   0.57633
   -              2       0.4394 /_   -3.5  0.033278    22.870        2-3 6.8981E-017 /_ -145.5 3.0162E-018
   -              3       0.4394 /_   -3.5  0.033278    22.870        3-1     13.181 /_  176.5   0.57633
26999477 ........ 1       13.596 /_   -3.7    1.0297    22.870        1-2     23.691 /_   25.8    1.0359
   -              2        13.61 /_ -124.8    1.0308    22.870        2-3     23.208 /_  -93.1    1.0148
   -              3       13.641 /_  118.5    1.0331    22.870        3-1     23.836 /_  147.4    1.0422
26755991 ........ 1       13.596 /_   -3.7    1.0297    22.870
103121256 ....... 1      0.44071 /_ -124.4  0.033377    22.870        1-2     13.219 /_   55.6     0.578
   -              2       13.659 /_ -124.4    1.0345    22.870        2-3     13.219 /_ -124.4     0.578
   -              3      0.44071 /_ -124.4  0.033377    22.870        3-1 1.0248E-016 /_ -146.3 4.4808E-018
27137027 ........ 2       13.659 /_ -124.4    1.0345    22.870
27136524 ........ 1       13.631 /_   -3.3    1.0323    22.870        1-2     13.191 /_   -3.3   0.57678
   -              2      0.43975 /_   -3.2  0.033304    22.870        2-3          0 /_    0.0         0
   -              3      0.43975 /_   -3.2  0.033304    22.870        3-1     13.191 /_  176.7   0.57678
27136494 ........ 1        13.63 /_   -3.3    1.0323    22.870        1-2     13.191 /_   -3.3   0.57676
   -              2      0.43973 /_   -3.2  0.033303    22.870        2-3          0 /_    0.0         0
   -              3      0.43973 /_   -3.2  0.033303    22.870        3-1     13.191 /_  176.7   0.57676
103121503 ....... 1       13.623 /_   -3.5    1.0317    22.870        1-2     23.728 /_   26.1    1.0375
   -              2       13.659 /_ -124.4    1.0345    22.870        2-3     23.262 /_  -92.8    1.0172
   -              3       13.647 /_  118.8    1.0335    22.870        3-1     23.886 /_  147.6    1.0444
27136946 ........ 1      0.44022 /_  118.8   0.03334    22.870        1-2 1.9066E-016 /_ -116.6 8.3366E-018
   -              2      0.44022 /_  118.8   0.03334    22.870        2-3     13.207 /_  -61.2   0.57746
   -              3       13.647 /_  118.8    1.0335    22.870        3-1     13.207 /_  118.8   0.57746
27136721 ........ 1       13.563 /_   -3.8    1.0272    22.870        1-2     13.125 /_   -3.8    0.5739
   -              2      0.43754 /_   -3.8  0.033137    22.870        2-3 5.6843E-017 /_  180.0 2.4855E-018
   -              3      0.43754 /_   -3.8  0.033137    22.870        3-1     13.125 /_  176.2    0.5739
27137278 ........ 1       13.562 /_   -3.8    1.0271    22.870        1-2     13.125 /_   -3.8   0.57388
   -              2      0.43753 /_   -3.8  0.033136    22.870        2-3 7.816E-017 /_  -90.0 3.4176E-018
   -              3      0.43753 /_   -3.8  0.033136    22.870        3-1     13.125 /_  176.2   0.57388
1140122 ......... 1       13.594 /_   -3.7    1.0296    22.870        1-2     23.695 /_   25.7    1.0361
   -              2       13.605 /_ -124.9    1.0304    22.870        2-3     23.205 /_  -93.2    1.0146
   -              3       13.648 /_  118.4    1.0336    22.870        3-1     23.836 /_  147.3    1.0422
26999161 ........ 1      0.44023 /_  118.4  0.033341    22.870        1-2 2.5421E-016 /_ -116.6 1.1116E-017
   -              2      0.44023 /_  118.4  0.033341    22.870        2-3     13.207 /_  -61.6   0.57748
   -              3       13.647 /_  118.4    1.0336    22.870        3-1     13.207 /_  118.4   0.57748
103537136 ....... 2       13.643 /_ -123.9    1.0332    22.870
103536814 ....... 1      0.44009 /_ -123.9   0.03333    22.870        1-2     13.203 /_   56.1    0.5773
   -              2       13.643 /_ -123.9    1.0332    22.870        2-3     13.203 /_ -123.9    0.5773
   -              3      0.44009 /_ -123.9   0.03333    22.870        3-1 2.558E-016 /_  180.0 1.1185E-017
27000186 ........ 1      0.44079 /_  118.3  0.033383    22.870        1-2 2.0495E-016 /_ -123.7 8.9616E-018
   -              2      0.44079 /_  118.3  0.033383    22.870        2-3     13.224 /_  -61.7   0.57822
   -              3       13.665 /_  118.3    1.0349    22.870        3-1     13.224 /_  118.3   0.57822
27000189 ........ 1      0.44084 /_  118.3  0.033387    22.870        1-2 1.9066E-016 /_   63.4 8.3366E-018
   -              2      0.44084 /_  118.3  0.033387    22.870        2-3     13.224 /_  -61.7   0.57822
   -              3       13.665 /_  118.3    1.0349    22.870        3-1     13.224 /_  118.3   0.57822
26999354 ........ 1      0.44066 /_  118.3  0.033373    22.870        1-2          0 /_    0.0         0
   -              2      0.44066 /_  118.3  0.033373    22.870        2-3     13.219 /_  -61.7   0.57799
   -              3       13.659 /_  118.3    1.0345    22.870        3-1     13.219 /_  118.3   0.57799
26999350 ........ 1       0.4406 /_  118.3  0.033368    22.870        1-2 6.3553E-017 /_  -63.4 2.7789E-018
   -              2       0.4406 /_  118.3  0.033368    22.870        2-3     13.217 /_  -61.7    0.5779
   -              3       13.657 /_  118.3    1.0343    22.870        3-1     13.217 /_  118.3    0.5779
103651945 ....... 2       13.638 /_ -123.9    1.0329    22.870
103529698 ....... 1      0.44002 /_ -123.9  0.033325    22.870        1-2     13.198 /_   56.1   0.57709
   -              2       13.638 /_ -123.9    1.0329    22.870        2-3     13.198 /_ -123.9   0.57709
   -              3      0.44002 /_ -123.9  0.033325    22.870        3-1 2.3437E-016 /_   14.0 1.0248E-017
103016792 ....... 1       13.628 /_   -3.3    1.0321    22.870        1-2     23.698 /_   26.4    1.0362
   -              2       13.643 /_ -123.9    1.0332    22.870        2-3     23.246 /_  -92.5    1.0165
   -              3       13.605 /_  118.9    1.0304    22.870        3-1     23.843 /_  147.9    1.0425
103016797 ....... 1       13.628 /_   -3.3    1.0321    22.870        1-2     23.698 /_   26.4    1.0362
   -              2       13.643 /_ -123.9    1.0332    22.870        2-3     23.246 /_  -92.5    1.0165
   -              3       13.605 /_  118.9    1.0304    22.870        3-1     23.843 /_  147.9    1.0425
27000202 ........ 1      0.43841 /_ -125.2  0.033203    22.870        1-2     13.152 /_   54.8    0.5751
   -              2       13.591 /_ -125.2    1.0293    22.870        2-3     13.152 /_ -125.2   0.57509
   -              3      0.43846 /_ -125.2  0.033206    22.870        3-1 5.8692E-005 /_  -80.2 2.5663E-006
27000205 ........ 1      0.43841 /_ -125.1  0.033203    22.870        1-2     13.152 /_   54.8   0.57508
   -              2        13.59 /_ -125.2    1.0293    22.870        2-3     13.152 /_ -125.2   0.57508
   -              3      0.43841 /_ -125.1  0.033203    22.870        3-1 2.8422E-017 /_    0.0 1.2428E-018
103016794 ....... 1       13.628 /_   -3.3    1.0321    22.870        1-2     23.698 /_   26.4    1.0362
   -              2       13.643 /_ -123.9    1.0332    22.870        2-3     23.246 /_  -92.5    1.0165
   -              3       13.605 /_  118.9    1.0304    22.870        3-1     23.843 /_  147.9    1.0425
103294963 ....... 1       13.628 /_   -3.3    1.0321    22.870        1-2     23.698 /_   26.4    1.0362
   -              2       13.643 /_ -123.9    1.0332    22.870        2-3     23.246 /_  -92.5    1.0165
   -              3       13.605 /_  118.9    1.0304    22.870        3-1     23.843 /_  147.9    1.0425
103649883 ....... 1            0 /_    0.0         0    22.870        1-2          0 /_    0.0         0
   -              2            0 /_    0.0         0    22.870        2-3          0 /_    0.0         0
   -              3            0 /_    0.0         0    22.870        3-1          0 /_    0.0         0
103649893 ....... 1            0 /_    0.0         0    22.870        1-2          0 /_    0.0         0
   -              2            0 /_    0.0         0    22.870        2-3          0 /_    0.0         0
   -              3            0 /_    0.0         0    22.870        3-1          0 /_    0.0         0
103294961 ....... 1       13.628 /_   -3.3    1.0321    22.870        1-2     23.698 /_   26.4    1.0362
   -              2       13.643 /_ -123.9    1.0332    22.870        2-3     23.246 /_  -92.5    1.0165
   -              3       13.605 /_  118.9    1.0304    22.870        3-1     23.843 /_  147.9    1.0425
103016793 ....... 1       13.628 /_   -3.3    1.0321    22.870        1-2     23.698 /_   26.4    1.0362
   -              2       13.643 /_ -123.9    1.0332    22.870        2-3     23.246 /_  -92.5    1.0165
   -              3       13.605 /_  118.9    1.0304    22.870        3-1     23.843 /_  147.9    1.0425
27000112 ........ 1       13.574 /_   -3.8     1.028    22.870        1-2     13.136 /_   -3.8   0.57439
   -              2      0.43787 /_   -3.8  0.033162    22.870        2-3 2.2914E-016 /_  119.7 1.0019E-017
   -              3      0.43787 /_   -3.8  0.033162    22.870        3-1     13.136 /_  176.2   0.57439
27000204 ........ 1       13.574 /_   -3.8     1.028    22.870        1-2     13.136 /_   -3.8   0.57438
   -              2      0.43789 /_   -3.8  0.033163    22.870        2-3 6.8981E-017 /_  145.5 3.0162E-018
   -              3      0.43789 /_   -3.8  0.033163    22.870        3-1     13.136 /_  176.2   0.57438
27146931 ........ 1       13.632 /_   -3.2    1.0324    22.870        1-2     23.702 /_   26.4    1.0364
   -              2       13.645 /_ -123.9    1.0334    22.870        2-3      23.25 /_  -92.5    1.0166
   -              3       13.605 /_  119.0    1.0303    22.870        3-1     23.845 /_  147.9    1.0426
27146927 ........ 1       13.632 /_   -3.2    1.0324    22.870        1-2     23.702 /_   26.4    1.0364
   -              2       13.645 /_ -123.9    1.0334    22.870        2-3      23.25 /_  -92.5    1.0166
   -              3       13.605 /_  119.0    1.0303    22.870        3-1     23.845 /_  147.9    1.0426
27136875 ........ 1      0.44027 /_ -124.2  0.033344    22.870        1-2     13.207 /_   55.7   0.57749
   -              2       13.647 /_ -124.3    1.0336    22.870        2-3     13.207 /_ -124.3   0.57749
   -              3      0.44027 /_ -124.2  0.033344    22.870        3-1 2.8422E-017 /_    0.0 1.2428E-018
27136871 ........ 1      0.44028 /_ -124.3  0.033344    22.870        1-2     13.207 /_   55.7   0.57748
   -              2       13.647 /_ -124.3    1.0336    22.870        2-3     13.207 /_ -124.3   0.57748
   -              3      0.44028 /_ -124.3  0.033344    22.870        3-1 5.6843E-017 /_  -90.0 2.4855E-018
27137075 ........ 1        13.62 /_   -3.4    1.0315    22.870        1-2     13.181 /_   -3.4   0.57633
   -              2      0.43935 /_   -3.4  0.033274    22.870        2-3 2.362E-016 /_  136.2 1.0328E-017
...
T4795B23_10000048 3       13.602 /_  118.9    1.0301    22.870
T4795B23_10000047 2       13.638 /_ -123.9    1.0329    22.870
27136912 ........ 1       13.617 /_   -3.5    1.0313    22.870        1-2     13.178 /_   -3.5   0.57621
   -              2      0.43931 /_   -3.5  0.033271    22.870        2-3          0 /_    0.0         0
   -              3      0.43931 /_   -3.5  0.033271    22.870        3-1     13.178 /_  176.5   0.57621
27136904 ........ 1       13.617 /_   -3.5    1.0313    22.870        1-2     13.178 /_   -3.5    0.5762
   -              2       0.4393 /_   -3.5   0.03327    22.870        2-3 6.8981E-017 /_ -145.5 3.0162E-018
   -              3       0.4393 /_   -3.5   0.03327    22.870        3-1     13.178 /_  176.5    0.5762
103529696 ....... 1       13.626 /_   -3.3    1.0319    22.870        1-2     13.186 /_   -3.3   0.57657
   -              2      0.43962 /_   -3.3  0.033295    22.870        2-3 5.8593E-017 /_   14.0 2.562E-018
   -              3      0.43962 /_   -3.3  0.033295    22.870        3-1     13.186 /_  176.7   0.57657
T4795B23_10000046 1       13.626 /_   -3.3    1.0319    22.870
27136585 ........ 1       0.4388 /_  118.9  0.033232    22.870        1-2 6.3553E-017 /_  -63.4 2.7789E-018
   -              2       0.4388 /_  118.9  0.033232    22.870        2-3     13.163 /_  -61.1   0.57555
   -              3       13.602 /_  118.9    1.0301    22.870        3-1     13.163 /_  118.9   0.57555
103125253 ....... 1       13.628 /_   -3.3    1.0321    22.870        1-2     23.696 /_   26.4    1.0361
   -              2       13.641 /_ -123.9    1.0331    22.870        2-3     23.245 /_  -92.5    1.0164
   -              3       13.604 /_  118.9    1.0303    22.870        3-1     23.842 /_  147.9    1.0425
26999449 ........ 1       13.599 /_   -3.6    1.0299    22.870        1-2      13.16 /_   -3.6   0.57543
   -              2      0.43866 /_   -3.6  0.033222    22.870        2-3 3.0611E-016 /_  111.8 1.3385E-017
   -              3      0.43866 /_   -3.6  0.033222    22.870        3-1      13.16 /_  176.4   0.57543
26999463 ........ 1       13.599 /_   -3.6    1.0299    22.870        1-2      13.16 /_   -3.6   0.57542
   -              2      0.43872 /_   -3.6  0.033226    22.870        2-3 4.2633E-017 /_  -90.0 1.8641E-018
   -              3      0.43872 /_   -3.6  0.033226    22.870        3-1      13.16 /_  176.4   0.57542
103294677 ....... 1       13.628 /_   -3.3    1.0321    22.870        1-2     23.698 /_   26.4    1.0362
   -              2       13.643 /_ -123.9    1.0332    22.870        2-3     23.246 /_  -92.5    1.0165
   -              3       13.605 /_  118.9    1.0304    22.870        3-1     23.843 /_  147.9    1.0425
103294685 ....... 1       13.628 /_   -3.3    1.0321    22.870        1-2     13.188 /_   -3.3   0.57667
   -              2      0.43966 /_   -3.3  0.033297    22.870        2-3          0 /_    0.0         0
   -              3      0.43966 /_   -3.3  0.033297    22.870        3-1     13.188 /_  176.7   0.57667
26999389 ........ 1      0.44037 /_  118.3  0.033351    22.870        1-2 2.2914E-016 /_   29.7 1.0019E-017
   -              2      0.44037 /_  118.3  0.033351    22.870        2-3     13.211 /_  -61.6   0.57766
   -              3       13.651 /_  118.4    1.0339    22.870        3-1     13.211 /_  118.4   0.57766
26999392 ........ 1       0.4404 /_  118.4  0.033354    22.870        1-2 5.6843E-017 /_    0.0 2.4855E-018
   -              2       0.4404 /_  118.4  0.033354    22.870        2-3     13.211 /_  -61.6   0.57765
   -              3       13.651 /_  118.4    1.0339    22.870        3-1     13.211 /_  118.4   0.57765
26999384 ........ 1       13.578 /_   -3.8    1.0283    22.870        1-2      13.14 /_   -3.8   0.57453
   -              2      0.43803 /_   -3.8  0.033174    22.870        2-3 7.1054E-017 /_ -143.1 3.1069E-018
   -              3      0.43803 /_   -3.8  0.033174    22.870        3-1      13.14 /_  176.2   0.57453
26999379 ........ 1       13.576 /_   -3.8    1.0282    22.870        1-2     13.138 /_   -3.8   0.57446
   -              2      0.43797 /_   -3.8  0.033169    22.870        2-3          0 /_    0.0         0
   -              3      0.43797 /_   -3.8  0.033169    22.870        3-1     13.138 /_  176.2   0.57446
103079630 ....... 1      0.43627 /_ -125.2  0.033041    22.870        1-2     13.085 /_   54.8   0.57217
   -              2       13.522 /_ -125.2    1.0241    22.870        2-3     13.085 /_ -125.2   0.57217
   -              3      0.43627 /_ -125.2  0.033041    22.870        3-1 5.6843E-017 /_  -90.0 2.4855E-018
103072060 ....... 1      0.43627 /_ -125.2  0.033041    22.870        1-2     13.085 /_   54.8   0.57217
   -              2       13.522 /_ -125.2    1.0241    22.870        2-3     13.085 /_ -125.2   0.57217
   -              3      0.43627 /_ -125.2  0.033041    22.870        3-1 2.8422E-017 /_    0.0 1.2428E-018
27136767 ........ 1       13.616 /_   -3.6    1.0312    22.870        1-2     13.176 /_   -3.6   0.57614
   -              2      0.43925 /_   -3.6  0.033267    22.870        2-3          0 /_    0.0         0
   -              3      0.43925 /_   -3.6  0.033267    22.870        3-1     13.176 /_  176.4   0.57614
27136764 ........ 1       13.615 /_   -3.6    1.0312    22.870        1-2     13.176 /_   -3.6   0.57613
   -              2      0.43929 /_   -3.4  0.033269    22.870        2-3 7.1054E-017 /_ -143.1 3.1069E-018
   -              3      0.43929 /_   -3.4  0.033269    22.870        3-1     13.176 /_  176.4   0.57613
26999456 ........ 1      0.43911 /_ -124.7  0.033255    22.870        1-2     13.173 /_   55.3     0.576
...